Celecoxib
       ACL          3D   0.00000     0.00000     0
CORINA Classic 5.0.0 0026  29.08.2023
 40 42  0  0  0  0  0  0  0  0999 V2000
   16.7663    2.2276    0.2633 C   0  0  0  0  0  0  0  0  0  0  0  0
   16.0652    0.9417    0.6180 C   0  0  0  0  0  0  0  0  0  0  0  0
   15.3144    0.2802   -0.3375 C   0  0  0  0  0  0  0  0  0  0  0  0
   14.6650   -0.8943   -0.0172 C   0  0  0  0  0  0  0  0  0  0  0  0
   14.7765   -1.4209    1.2699 C   0  0  0  0  0  0  0  0  0  0  0  0
   15.5402   -0.7523    2.2272 C   0  0  0  0  0  0  0  0  0  0  0  0
   16.1801    0.4244    1.8960 C   0  0  0  0  0  0  0  0  0  0  0  0
   14.0875   -2.6827    1.6184 C   0  0  0  0  0  0  0  0  0  0  0  0
   14.5905   -3.6950    2.3865 C   0  0  0  0  0  0  0  0  0  0  0  0
   13.6191   -4.6933    2.4684 C   0  0  0  0  0  0  0  0  0  0  0  0
   12.5729   -4.3169    1.7769 N   0  0  0  0  0  0  0  0  0  0  0  0
   12.8330   -3.0548    1.2274 N   0  0  0  0  0  0  0  0  0  0  0  0
   11.9632   -2.3090    0.4217 C   0  0  0  0  0  0  0  0  0  0  0  0
   10.9817   -2.9506   -0.3221 C   0  0  0  0  0  0  0  0  0  0  0  0
   10.1224   -2.2119   -1.1119 C   0  0  0  0  0  0  0  0  0  0  0  0
   10.2456   -0.8359   -1.1707 C   0  0  0  0  0  0  0  0  0  0  0  0
   11.2254   -0.1945   -0.4352 C   0  0  0  0  0  0  0  0  0  0  0  0
   12.0843   -0.9270    0.3605 C   0  0  0  0  0  0  0  0  0  0  0  0
    9.1515    0.1023   -2.1842 S   0  0  0  0  0  0  0  0  0  0  0  0
    9.8074    1.3347   -2.4491 O   0  0  0  0  0  0  0  0  0  0  0  0
    8.7018   -0.7746   -3.2080 O   0  0  0  0  0  0  0  0  0  0  0  0
    7.8235    0.4676   -1.2648 N   0  0  0  0  0  0  0  0  0  0  0  0
   13.7541   -5.9912    3.2220 C   0  0  0  0  0  0  0  0  0  0  0  0
   13.5378   -7.0623    2.3483 F   0  0  0  0  0  0  0  0  0  0  0  0
   15.0405   -6.0841    3.7641 F   0  0  0  0  0  0  0  0  0  0  0  0
   12.8094   -6.0324    4.2530 F   0  0  0  0  0  0  0  0  0  0  0  0
   17.7650    2.0052   -0.1124 H   0  0  0  0  0  0  0  0  0  0  0  0
   16.1975    2.7516   -0.5050 H   0  0  0  0  0  0  0  0  0  0  0  0
   16.8433    2.8561    1.1505 H   0  0  0  0  0  0  0  0  0  0  0  0
   15.2328    0.6864   -1.3349 H   0  0  0  0  0  0  0  0  0  0  0  0
   14.0753   -1.4072   -0.7626 H   0  0  0  0  0  0  0  0  0  0  0  0
   15.6307   -1.1551    3.2252 H   0  0  0  0  0  0  0  0  0  0  0  0
   16.7715    0.9429    2.6360 H   0  0  0  0  0  0  0  0  0  0  0  0
   15.5657   -3.7173    2.8499 H   0  0  0  0  0  0  0  0  0  0  0  0
   10.8875   -4.0256   -0.2799 H   0  0  0  0  0  0  0  0  0  0  0  0
    9.3564   -2.7100   -1.6877 H   0  0  0  0  0  0  0  0  0  0  0  0
   11.3194    0.8803   -0.4835 H   0  0  0  0  0  0  0  0  0  0  0  0
   12.8491   -0.4255    0.9349 H   0  0  0  0  0  0  0  0  0  0  0  0
    7.3283    1.2849   -1.4312 H   0  0  0  0  0  0  0  0  0  0  0  0
    7.5410   -0.1355   -0.5597 H   0  0  0  0  0  0  0  0  0  0  0  0
  1  2  1  0  0  0  0
  2  7  2  0  0  0  0
  2  3  1  0  0  0  0
  3  4  2  0  0  0  0
  4  5  1  0  0  0  0
  5  6  2  0  0  0  0
  6  7  1  0  0  0  0
  5  8  1  0  0  0  0
  8 12  1  0  0  0  0
  8  9  2  0  0  0  0
  9 10  1  0  0  0  0
 10 11  2  0  0  0  0
 11 12  1  0  0  0  0
 12 13  1  0  0  0  0
 13 18  2  0  0  0  0
 13 14  1  0  0  0  0
 14 15  2  0  0  0  0
 15 16  1  0  0  0  0
 16 17  2  0  0  0  0
 17 18  1  0  0  0  0
 16 19  1  0  0  0  0
 19 20  2  0  0  0  0
 19 21  2  0  0  0  0
 19 22  1  0  0  0  0
 10 23  1  0  0  0  0
 23 24  1  0  0  0  0
 23 25  1  0  0  0  0
 23 26  1  0  0  0  0
  1 27  1  0  0  0  0
  1 28  1  0  0  0  0
  1 29  1  0  0  0  0
  3 30  1  0  0  0  0
  4 31  1  0  0  0  0
  6 32  1  0  0  0  0
  7 33  1  0  0  0  0
  9 34  1  0  0  0  0
 14 35  1  0  0  0  0
 15 36  1  0  0  0  0
 17 37  1  0  0  0  0
 18 38  1  0  0  0  0
 22 39  1  0  0  0  0
 22 40  1  0  0  0  0
M  END
> <ZingBumps>
0

> <ZingRotBonds>
4

> <ZingDreiding>
5.25057

> <ZingProteinDesolvation>
7.446078

> <ZingFitScore>
12.572985

> <ZingPiecewiseLinear_VDW>
-19.950523

> <ZingSeed>
1108932058

> <ZingScore>
-8.590804

> <Score>
-8.590804

> <ZingPhysicsScore>
-12.815186

> <ZingStrainEnergy>
0

> <ZingPiecewiseLinear_ES>
-6.575491

> <ZingLigandDesolvation>
1.014181

> <ZingIntramolecularHBond>
0

> <DF_RANK>
6

> <DF_RECIP_RANK>
0.1666666667

> <DF_NORMALIZED_SCORE>
0.7915214524

> <DF_ZSCORE>
0.4826278538

> <MVT_STAR_RATING>
0

$$$$
