Diflunisal
       ACL          3D   0.00000     0.00000     0
CORINA Classic 5.0.0 0026  29.08.2023
 26 27  0  0  0  0  0  0  0  0999 V2000
   19.2529    5.8410   -3.3923 O   0  0  0  0  0  0  0  0  0  0  0  0
   20.4114    5.3351   -2.9257 C   0  0  0  0  0  0  0  0  0  0  0  0
   21.4264    5.4317   -3.5867 O   0  0  0  0  0  0  0  0  0  0  0  0
   20.4475    4.6645   -1.6134 C   0  0  0  0  0  0  0  0  0  0  0  0
   19.2635    4.2286   -1.0163 C   0  0  0  0  0  0  0  0  0  0  0  0
   19.3056    3.6031    0.2233 C   0  0  0  0  0  0  0  0  0  0  0  0
   20.5296    3.4064    0.8663 C   0  0  0  0  0  0  0  0  0  0  0  0
   21.7006    3.8307    0.2762 C   0  0  0  0  0  0  0  0  0  0  0  0
   21.6720    4.4570   -0.9620 C   0  0  0  0  0  0  0  0  0  0  0  0
   22.8269    4.8729   -1.5390 O   0  0  0  0  0  0  0  0  0  0  0  0
   18.0491    3.1440    0.8649 C   0  0  0  0  0  0  0  0  0  0  0  0
   18.0187    2.8803    2.2328 C   0  0  0  0  0  0  0  0  0  0  0  0
   16.8466    2.4596    2.8267 C   0  0  0  0  0  0  0  0  0  0  0  0
   15.7027    2.2867    2.0637 C   0  0  0  0  0  0  0  0  0  0  0  0
   14.5594    1.8687    2.6496 F   0  0  0  0  0  0  0  0  0  0  0  0
   15.7276    2.5416    0.7028 C   0  0  0  0  0  0  0  0  0  0  0  0
   16.8955    2.9694    0.0996 C   0  0  0  0  0  0  0  0  0  0  0  0
   16.9199    3.2176   -1.2283 F   0  0  0  0  0  0  0  0  0  0  0  0
   18.4721    5.7401   -2.8309 H   0  0  0  0  0  0  0  0  0  0  0  0
   18.3174    4.3815   -1.5142 H   0  0  0  0  0  0  0  0  0  0  0  0
   20.5586    2.9194    1.8298 H   0  0  0  0  0  0  0  0  0  0  0  0
   22.6436    3.6756    0.7793 H   0  0  0  0  0  0  0  0  0  0  0  0
   23.6171    4.6935   -1.0114 H   0  0  0  0  0  0  0  0  0  0  0  0
   18.9105    3.0094    2.8282 H   0  0  0  0  0  0  0  0  0  0  0  0
   16.8218    2.2598    3.8878 H   0  0  0  0  0  0  0  0  0  0  0  0
   14.8336    2.4062    0.1122 H   0  0  0  0  0  0  0  0  0  0  0  0
  1  2  1  0  0  0  0
  2  3  2  0  0  0  0
  2  4  1  0  0  0  0
  4  9  2  0  0  0  0
  4  5  1  0  0  0  0
  5  6  2  0  0  0  0
  6  7  1  0  0  0  0
  7  8  2  0  0  0  0
  8  9  1  0  0  0  0
  9 10  1  0  0  0  0
  6 11  1  0  0  0  0
 11 17  2  0  0  0  0
 11 12  1  0  0  0  0
 12 13  2  0  0  0  0
 13 14  1  0  0  0  0
 14 15  1  0  0  0  0
 14 16  2  0  0  0  0
 16 17  1  0  0  0  0
 17 18  1  0  0  0  0
  1 19  1  0  0  0  0
  5 20  1  0  0  0  0
  7 21  1  0  0  0  0
  8 22  1  0  0  0  0
 10 23  1  0  0  0  0
 12 24  1  0  0  0  0
 13 25  1  0  0  0  0
 16 26  1  0  0  0  0
M  END
> <ZingBumps>
0

> <ZingRotBonds>
2

> <ZingDreiding>
5.750631

> <ZingProteinDesolvation>
2.842287

> <ZingFitScore>
13.289058

> <ZingPiecewiseLinear_VDW>
-18.083533

> <ZingSeed>
1902229817

> <ZingScore>
-8.457487

> <Score>
-8.457487

> <ZingPhysicsScore>
-9.882749

> <ZingStrainEnergy>
0

> <ZingPiecewiseLinear_ES>
-7.489286

> <ZingLigandDesolvation>
7.097152

> <ZingIntramolecularHBond>
0

> <DF_RANK>
7

> <DF_RECIP_RANK>
0.1428571429

> <DF_NORMALIZED_SCORE>
0.7718853848

> <DF_ZSCORE>
0.3895042857

> <MVT_STAR_RATING>
0

$$$$
