Digoxin
       ACL          3D   0.00000     0.00000     0
CORINA Classic 5.0.0 0026  29.08.2023
119126  0  0  1  0  0  0  0  0999 V2000
   23.2747    2.9576    3.6860 C   0  0  0  0  0  0  0  0  0  0  0  0
   22.2888    4.0059    4.2055 C   0  0  1  0  0  0  0  0  0  0  0  0
   22.7568    4.9899    4.1788 H   0  0  0  0  0  0  0  0  0  0  0  0
   21.1208    4.0110    3.3820 O   0  0  0  0  0  0  0  0  0  0  0  0
   20.1404    4.9773    3.7661 C   0  0  2  0  0  0  0  0  0  0  0  0
   20.5801    5.9741    3.7336 H   0  0  0  0  0  0  0  0  0  0  0  0
   19.6602    4.6772    5.1884 C   0  0  0  0  0  0  0  0  0  0  0  0
   20.8624    4.6860    6.1375 C   0  0  2  0  0  0  0  0  0  0  0  0
   20.5357    4.4180    7.1423 H   0  0  0  0  0  0  0  0  0  0  0  0
   21.4481    5.9893    6.1550 O   0  0  0  0  0  0  0  0  0  0  0  0
   21.8947    3.6668    5.6455 C   0  0  2  0  0  0  0  0  0  0  0  0
   21.4636    2.6664    5.6792 H   0  0  0  0  0  0  0  0  0  0  0  0
   23.0516    3.7168    6.4828 O   0  0  0  0  0  0  0  0  0  0  0  0
   19.0323    4.9154    2.8659 O   0  0  0  0  0  0  0  0  0  0  0  0
   18.4259    3.6244    2.7784 C   0  0  1  0  0  0  0  0  0  0  0  0
   19.1927    2.8544    2.8626 H   0  0  0  0  0  0  0  0  0  0  0  0
   17.4079    3.4593    3.9110 C   0  0  1  0  0  0  0  0  0  0  0  0
   17.9214    3.5006    4.8716 H   0  0  0  0  0  0  0  0  0  0  0  0
   16.4404    4.5085    3.8408 O   0  0  0  0  0  0  0  0  0  0  0  0
   16.7093    2.1044    3.7612 C   0  0  0  0  0  0  0  0  0  0  0  0
   16.0576    2.0252    2.3782 C   0  0  2  0  0  0  0  0  0  0  0  0
   15.2970    2.8010    2.2896 H   0  0  0  0  0  0  0  0  0  0  0  0
   15.4515    0.7422    2.2098 O   0  0  0  0  0  0  0  0  0  0  0  0
   14.1591    0.7851    1.6015 C   0  0  1  0  0  0  0  0  0  0  0  0
   13.4710    1.3338    2.2446 H   0  0  0  0  0  0  0  0  0  0  0  0
   14.2562    1.4839    0.2419 C   0  0  1  0  0  0  0  0  0  0  0  0
   14.5704    2.5178    0.3849 H   0  0  0  0  0  0  0  0  0  0  0  0
   15.2086    0.8038   -0.5781 O   0  0  0  0  0  0  0  0  0  0  0  0
   12.8821    1.4549   -0.4342 C   0  0  0  0  0  0  0  0  0  0  0  0
   12.4140    0.0026   -0.5593 C   0  0  2  0  0  0  0  0  0  0  0  0
   13.1067   -0.5492   -1.1947 H   0  0  0  0  0  0  0  0  0  0  0  0
   11.1079   -0.0290   -1.1381 O   0  0  0  0  0  0  0  0  0  0  0  0
   10.4790   -1.3111   -1.0839 C   0  0  1  0  0  0  0  0  0  0  0  0
   10.5233   -1.6947   -0.0646 H   0  0  0  0  0  0  0  0  0  0  0  0
    9.0173   -1.1810   -1.5171 C   0  0  0  0  0  0  0  0  0  0  0  0
    8.9556   -0.6414   -2.9473 C   0  0  0  0  0  0  0  0  0  0  0  0
    9.6833   -1.6031   -3.8883 C   0  0  1  0  0  0  0  0  0  0  0  0
    9.6262   -1.0584   -5.3170 C   0  0  0  0  0  0  0  0  0  0  0  0
   11.1439   -1.7358   -3.4540 C   0  0  2  0  0  0  0  0  0  0  0  0
   11.6247   -0.7585   -3.4941 H   0  0  0  0  0  0  0  0  0  0  0  0
   11.8708   -2.6980   -4.3953 C   0  0  0  0  0  0  0  0  0  0  0  0
   11.1956   -4.0699   -4.3451 C   0  0  0  0  0  0  0  0  0  0  0  0
    9.7343   -3.9353   -4.7799 C   0  0  2  0  0  0  0  0  0  0  0  0
    9.7083   -3.5208   -5.7877 H   0  0  0  0  0  0  0  0  0  0  0  0
    9.0079   -2.9754   -3.8390 C   0  0  2  0  0  0  0  0  0  0  0  0
    9.0293   -3.3583   -2.8188 H   0  0  0  0  0  0  0  0  0  0  0  0
    7.5557   -2.8406   -4.3091 C   0  0  0  0  0  0  0  0  0  0  0  0
    6.8780   -4.2034   -4.1940 C   0  0  1  0  0  0  0  0  0  0  0  0
    6.9381   -4.5478   -3.1615 H   0  0  0  0  0  0  0  0  0  0  0  0
    5.5045   -4.0789   -4.5681 O   0  0  0  0  0  0  0  0  0  0  0  0
    7.5582   -5.2264   -5.1068 C   0  0  2  0  0  0  0  0  0  0  0  0
    7.2498   -4.9592   -6.5814 C   0  0  0  0  0  0  0  0  0  0  0  0
    7.0594   -6.6257   -4.6576 C   0  0  2  0  0  0  0  0  0  0  0  0
    6.0635   -6.5460   -4.2219 H   0  0  0  0  0  0  0  0  0  0  0  0
    8.0616   -7.1229   -3.5992 C   0  0  0  0  0  0  0  0  0  0  0  0
    9.1502   -6.0320   -3.4752 C   0  0  0  0  0  0  0  0  0  0  0  0
    9.0688   -5.2889   -4.8214 C   0  0  2  0  0  0  0  0  0  0  0  0
    9.7008   -6.0921   -5.8202 O   0  0  0  0  0  0  0  0  0  0  0  0
    7.0357   -7.5686   -5.8330 C   0  0  0  0  0  0  0  0  0  0  0  0
    5.9212   -7.8802   -6.5125 C   0  0  0  0  0  0  0  0  0  0  0  0
    6.2260   -8.7819   -7.5511 C   0  0  0  0  0  0  0  0  0  0  0  0
    5.4590   -9.2696   -8.3571 O   0  0  0  0  0  0  0  0  0  0  0  0
    7.7207   -9.0109   -7.4426 C   0  0  0  0  0  0  0  0  0  0  0  0
    8.1270   -8.1811   -6.3150 O   0  0  0  0  0  0  0  0  0  0  0  0
   11.2053   -2.2755   -2.0239 C   0  0  0  0  0  0  0  0  0  0  0  0
   12.3754   -0.5974    0.7371 O   0  0  0  0  0  0  0  0  0  0  0  0
   13.6419   -0.6413    1.3977 C   0  0  2  0  0  0  0  0  0  0  0  0
   14.3508   -1.2013    0.7880 H   0  0  0  0  0  0  0  0  0  0  0  0
   13.4851   -1.3264    2.7567 C   0  0  0  0  0  0  0  0  0  0  0  0
   17.0539    2.2174    1.3720 O   0  0  0  0  0  0  0  0  0  0  0  0
   17.7079    3.4866    1.4334 C   0  0  2  0  0  0  0  0  0  0  0  0
   16.9691    4.2816    1.3323 H   0  0  0  0  0  0  0  0  0  0  0  0
   18.7278    3.5905    0.2976 C   0  0  0  0  0  0  0  0  0  0  0  0
   22.8063    1.9737    3.7124 H   0  0  0  0  0  0  0  0  0  0  0  0
   23.5552    3.1991    2.6607 H   0  0  0  0  0  0  0  0  0  0  0  0
   24.1650    2.9531    4.3148 H   0  0  0  0  0  0  0  0  0  0  0  0
   18.9450    5.4387    5.4995 H   0  0  0  0  0  0  0  0  0  0  0  0
   19.1839    3.6972    5.2129 H   0  0  0  0  0  0  0  0  0  0  0  0
   21.8326    6.2591    5.3097 H   0  0  0  0  0  0  0  0  0  0  0  0
   23.5343    4.5536    6.4372 H   0  0  0  0  0  0  0  0  0  0  0  0
   15.7210    4.4237    4.4815 H   0  0  0  0  0  0  0  0  0  0  0  0
   15.9443    2.0021    4.5308 H   0  0  0  0  0  0  0  0  0  0  0  0
   17.4413    1.3036    3.8653 H   0  0  0  0  0  0  0  0  0  0  0  0
   15.1108    0.9808   -1.5238 H   0  0  0  0  0  0  0  0  0  0  0  0
   12.9545    1.9009   -1.4262 H   0  0  0  0  0  0  0  0  0  0  0  0
   12.1681    2.0171    0.1676 H   0  0  0  0  0  0  0  0  0  0  0  0
    8.4995   -0.4947   -0.8471 H   0  0  0  0  0  0  0  0  0  0  0  0
    8.5380   -2.1591   -1.4767 H   0  0  0  0  0  0  0  0  0  0  0  0
    9.4338    0.3373   -2.9872 H   0  0  0  0  0  0  0  0  0  0  0  0
    7.9142   -0.5495   -3.2561 H   0  0  0  0  0  0  0  0  0  0  0  0
    8.5859   -0.9630   -5.6282 H   0  0  0  0  0  0  0  0  0  0  0  0
   10.1072   -0.0808   -5.3526 H   0  0  0  0  0  0  0  0  0  0  0  0
   10.1449   -1.7431   -5.9879 H   0  0  0  0  0  0  0  0  0  0  0  0
   11.8303   -2.3103   -5.4132 H   0  0  0  0  0  0  0  0  0  0  0  0
   12.9112   -2.7939   -4.0844 H   0  0  0  0  0  0  0  0  0  0  0  0
   11.7131   -4.7545   -5.0172 H   0  0  0  0  0  0  0  0  0  0  0  0
   11.2376   -4.4586   -3.3277 H   0  0  0  0  0  0  0  0  0  0  0  0
    7.5365   -2.5091   -5.3473 H   0  0  0  0  0  0  0  0  0  0  0  0
    7.0335   -2.1181   -3.6819 H   0  0  0  0  0  0  0  0  0  0  0  0
    5.3698   -3.7310   -5.4602 H   0  0  0  0  0  0  0  0  0  0  0  0
    6.1712   -4.9805   -6.7367 H   0  0  0  0  0  0  0  0  0  0  0  0
    7.6381   -3.9802   -6.8622 H   0  0  0  0  0  0  0  0  0  0  0  0
    7.7206   -5.7266   -7.1959 H   0  0  0  0  0  0  0  0  0  0  0  0
    7.5578   -7.2581   -2.6422 H   0  0  0  0  0  0  0  0  0  0  0  0
    8.5098   -8.0627   -3.9218 H   0  0  0  0  0  0  0  0  0  0  0  0
   10.1335   -6.4839   -3.3450 H   0  0  0  0  0  0  0  0  0  0  0  0
    8.9274   -5.3560   -2.6496 H   0  0  0  0  0  0  0  0  0  0  0  0
    9.4695   -5.8469   -6.7265 H   0  0  0  0  0  0  0  0  0  0  0  0
    4.9354   -7.4963   -6.2949 H   0  0  0  0  0  0  0  0  0  0  0  0
    7.9326  -10.0615   -7.2436 H   0  0  0  0  0  0  0  0  0  0  0  0
    8.2240   -8.6849   -8.3529 H   0  0  0  0  0  0  0  0  0  0  0  0
   12.2464   -2.3690   -1.7151 H   0  0  0  0  0  0  0  0  0  0  0  0
   10.7249   -3.2532   -1.9835 H   0  0  0  0  0  0  0  0  0  0  0  0
   13.0304   -2.3074    2.6187 H   0  0  0  0  0  0  0  0  0  0  0  0
   14.4646   -1.4419    3.2205 H   0  0  0  0  0  0  0  0  0  0  0  0
   12.8484   -0.7180    3.3991 H   0  0  0  0  0  0  0  0  0  0  0  0
   18.2320    3.4003   -0.6544 H   0  0  0  0  0  0  0  0  0  0  0  0
   19.1607    4.5908    0.2883 H   0  0  0  0  0  0  0  0  0  0  0  0
   19.5172    2.8543    0.4496 H   0  0  0  0  0  0  0  0  0  0  0  0
  1  2  1  0  0  0  0
  2  3  1  0  0  0  0
  2 11  1  0  0  0  0
  2  4  1  0  0  0  0
  4  5  1  0  0  0  0
  5  6  1  0  0  0  0
  5  7  1  0  0  0  0
  7  8  1  0  0  0  0
  8  9  1  0  0  0  0
  8 10  1  0  0  0  0
  8 11  1  0  0  0  0
 11 12  1  0  0  0  0
 11 13  1  0  0  0  0
  5 14  1  0  0  0  0
 14 15  1  0  0  0  0
 15 16  1  0  0  0  0
 15 71  1  0  0  0  0
 15 17  1  0  0  0  0
 17 18  1  0  0  0  0
 17 19  1  0  0  0  0
 17 20  1  0  0  0  0
 20 21  1  0  0  0  0
 21 22  1  0  0  0  0
 21 23  1  0  0  0  0
 23 24  1  0  0  0  0
 24 25  1  0  0  0  0
 24 67  1  0  0  0  0
 24 26  1  0  0  0  0
 26 27  1  0  0  0  0
 26 28  1  0  0  0  0
 26 29  1  0  0  0  0
 29 30  1  0  0  0  0
 30 31  1  0  0  0  0
 30 32  1  0  0  0  0
 32 33  1  0  0  0  0
 33 34  1  0  0  0  0
 33 65  1  0  0  0  0
 33 35  1  0  0  0  0
 35 36  1  0  0  0  0
 36 37  1  0  0  0  0
 37 45  1  0  0  0  0
 37 38  1  0  0  0  0
 37 39  1  0  0  0  0
 39 40  1  0  0  0  0
 39 41  1  0  0  0  0
 41 42  1  0  0  0  0
 42 43  1  0  0  0  0
 43 44  1  0  0  0  0
 43 57  1  0  0  0  0
 43 45  1  0  0  0  0
 45 46  1  0  0  0  0
 45 47  1  0  0  0  0
 47 48  1  0  0  0  0
 48 49  1  0  0  0  0
 48 50  1  0  0  0  0
 48 51  1  0  0  0  0
 51 57  1  0  0  0  0
 51 52  1  0  0  0  0
 51 53  1  0  0  0  0
 53 54  1  0  0  0  0
 53 55  1  0  0  0  0
 55 56  1  0  0  0  0
 56 57  1  0  0  0  0
 57 58  1  0  0  0  0
 53 59  1  0  0  0  0
 59 64  1  0  0  0  0
 59 60  2  0  0  0  0
 60 61  1  0  0  0  0
 61 62  2  0  0  0  0
 61 63  1  0  0  0  0
 63 64  1  0  0  0  0
 39 65  1  0  0  0  0
 30 66  1  0  0  0  0
 66 67  1  0  0  0  0
 67 68  1  0  0  0  0
 67 69  1  0  0  0  0
 21 70  1  0  0  0  0
 70 71  1  0  0  0  0
 71 72  1  0  0  0  0
 71 73  1  0  0  0  0
  1 74  1  0  0  0  0
  1 75  1  0  0  0  0
  1 76  1  0  0  0  0
  7 77  1  0  0  0  0
  7 78  1  0  0  0  0
 10 79  1  0  0  0  0
 13 80  1  0  0  0  0
 19 81  1  0  0  0  0
 20 82  1  0  0  0  0
 20 83  1  0  0  0  0
 28 84  1  0  0  0  0
 29 85  1  0  0  0  0
 29 86  1  0  0  0  0
 35 87  1  0  0  0  0
 35 88  1  0  0  0  0
 36 89  1  0  0  0  0
 36 90  1  0  0  0  0
 38 91  1  0  0  0  0
 38 92  1  0  0  0  0
 38 93  1  0  0  0  0
 41 94  1  0  0  0  0
 41 95  1  0  0  0  0
 42 96  1  0  0  0  0
 42 97  1  0  0  0  0
 47 98  1  0  0  0  0
 47 99  1  0  0  0  0
 50100  1  0  0  0  0
 52101  1  0  0  0  0
 52102  1  0  0  0  0
 52103  1  0  0  0  0
 55104  1  0  0  0  0
 55105  1  0  0  0  0
 56106  1  0  0  0  0
 56107  1  0  0  0  0
 58108  1  0  0  0  0
 60109  1  0  0  0  0
 63110  1  0  0  0  0
 63111  1  0  0  0  0
 65112  1  0  0  0  0
 65113  1  0  0  0  0
 69114  1  0  0  0  0
 69115  1  0  0  0  0
 69116  1  0  0  0  0
 73117  1  0  0  0  0
 73118  1  0  0  0  0
 73119  1  0  0  0  0
M  END
> <ZingBumps>
0

> <ZingRotBonds>
7

> <ZingDreiding>
-1.908665

> <ZingProteinDesolvation>
9.708088

> <ZingFitScore>
12.167454

> <ZingPiecewiseLinear_VDW>
-24.525679

> <ZingSeed>
492622338

> <ZingScore>
-9.082775

> <Score>
-9.082775

> <ZingPhysicsScore>
-16.925726

> <ZingStrainEnergy>
0

> <ZingPiecewiseLinear_ES>
-4.060555

> <ZingLigandDesolvation>
3.861086

> <ZingIntramolecularHBond>
0

> <DF_RANK>
4

> <DF_RECIP_RANK>
0.25

> <DF_NORMALIZED_SCORE>
0.8639831478

> <DF_ZSCORE>
0.8262756625

> <MVT_STAR_RATING>
0

$$$$
