Econazole
       ACL          3D   0.00000     0.00000     0
CORINA Classic 5.0.0 0026  29.08.2023
 39 41  0  0  1  0  0  0  0  0999 V2000
   15.5594    2.5828   -0.7639 Cl  0  0  0  0  0  0  0  0  0  0  0  0
   14.6128    1.6098    0.3181 C   0  0  0  0  0  0  0  0  0  0  0  0
   13.2526    1.4670    0.1100 C   0  0  0  0  0  0  0  0  0  0  0  0
   12.4994    0.6925    0.9721 C   0  0  0  0  0  0  0  0  0  0  0  0
   13.1050    0.0611    2.0426 C   0  0  0  0  0  0  0  0  0  0  0  0
   12.2830   -0.7824    2.9828 C   0  0  0  0  0  0  0  0  0  0  0  0
   11.6657   -1.8449    2.2535 O   0  0  0  0  0  0  0  0  0  0  0  0
   10.9195   -2.7518    3.0675 C   0  0  1  0  0  0  0  0  0  0  0  0
    9.6102   -3.1112    2.3622 C   0  0  0  0  0  0  0  0  0  0  0  0
    8.6167   -2.0644    2.6138 N   0  0  0  0  0  0  0  0  0  0  0  0
    8.2363   -1.0792    1.7429 C   0  0  0  0  0  0  0  0  0  0  0  0
    7.3060   -0.3384    2.3748 C   0  0  0  0  0  0  0  0  0  0  0  0
    7.1234   -0.8569    3.5983 N   0  0  0  0  0  0  0  0  0  0  0  0
    7.9009   -1.8945    3.7463 C   0  0  0  0  0  0  0  0  0  0  0  0
   11.7273   -4.0035    3.2953 C   0  0  0  0  0  0  0  0  0  0  0  0
   12.8146   -4.2807    2.4878 C   0  0  0  0  0  0  0  0  0  0  0  0
   13.5596   -5.4253    2.7001 C   0  0  0  0  0  0  0  0  0  0  0  0
   13.2141   -6.2974    3.7174 C   0  0  0  0  0  0  0  0  0  0  0  0
   14.1496   -7.7353    3.9835 Cl  0  0  0  0  0  0  0  0  0  0  0  0
   12.1228   -6.0234    4.5219 C   0  0  0  0  0  0  0  0  0  0  0  0
   11.3775   -4.8775    4.3090 C   0  0  0  0  0  0  0  0  0  0  0  0
   10.0081   -4.5324    5.3186 Cl  0  0  0  0  0  0  0  0  0  0  0  0
   14.4632    0.2078    2.2540 C   0  0  0  0  0  0  0  0  0  0  0  0
   15.2184    0.9773    1.3893 C   0  0  0  0  0  0  0  0  0  0  0  0
   12.7792    1.9608   -0.7257 H   0  0  0  0  0  0  0  0  0  0  0  0
   11.4375    0.5809    0.8098 H   0  0  0  0  0  0  0  0  0  0  0  0
   11.5137   -0.1650    3.4465 H   0  0  0  0  0  0  0  0  0  0  0  0
   12.9288   -1.1993    3.7556 H   0  0  0  0  0  0  0  0  0  0  0  0
   10.6988   -2.2824    4.0261 H   0  0  0  0  0  0  0  0  0  0  0  0
    9.7862   -3.1947    1.2897 H   0  0  0  0  0  0  0  0  0  0  0  0
    9.2406   -4.0625    2.7448 H   0  0  0  0  0  0  0  0  0  0  0  0
    8.6099   -0.9260    0.7413 H   0  0  0  0  0  0  0  0  0  0  0  0
    6.7964    0.5224    1.9679 H   0  0  0  0  0  0  0  0  0  0  0  0
    7.9635   -2.5134    4.6293 H   0  0  0  0  0  0  0  0  0  0  0  0
   13.0848   -3.6004    1.6938 H   0  0  0  0  0  0  0  0  0  0  0  0
   14.4119   -5.6389    2.0720 H   0  0  0  0  0  0  0  0  0  0  0  0
   11.8526   -6.7040    5.3158 H   0  0  0  0  0  0  0  0  0  0  0  0
   14.9350   -0.2825    3.0928 H   0  0  0  0  0  0  0  0  0  0  0  0
   16.2803    1.0884    1.5522 H   0  0  0  0  0  0  0  0  0  0  0  0
  1  2  1  0  0  0  0
  2 24  2  0  0  0  0
  2  3  1  0  0  0  0
  3  4  2  0  0  0  0
  4  5  1  0  0  0  0
  5  6  1  0  0  0  0
  6  7  1  0  0  0  0
  7  8  1  0  0  0  0
  8  9  1  0  0  0  0
  9 10  1  0  0  0  0
 10 14  1  0  0  0  0
 10 11  1  0  0  0  0
 11 12  2  0  0  0  0
 12 13  1  0  0  0  0
 13 14  2  0  0  0  0
  8 15  1  0  0  0  0
 15 21  2  0  0  0  0
 15 16  1  0  0  0  0
 16 17  2  0  0  0  0
 17 18  1  0  0  0  0
 18 19  1  0  0  0  0
 18 20  2  0  0  0  0
 20 21  1  0  0  0  0
 21 22  1  0  0  0  0
  5 23  2  0  0  0  0
 23 24  1  0  0  0  0
  3 25  1  0  0  0  0
  4 26  1  0  0  0  0
  6 27  1  0  0  0  0
  6 28  1  0  0  0  0
  8 29  1  0  0  0  0
  9 30  1  0  0  0  0
  9 31  1  0  0  0  0
 11 32  1  0  0  0  0
 12 33  1  0  0  0  0
 14 34  1  0  0  0  0
 16 35  1  0  0  0  0
 17 36  1  0  0  0  0
 20 37  1  0  0  0  0
 23 38  1  0  0  0  0
 24 39  1  0  0  0  0
M  END
> <ZingBumps>
0

> <ZingRotBonds>
6

> <ZingDreiding>
-0.037622

> <ZingProteinDesolvation>
5.837798

> <ZingFitScore>
16.342121

> <ZingPiecewiseLinear_VDW>
-15.017877

> <ZingSeed>
494599635

> <ZingScore>
-10.006247

> <Score>
-10.006247

> <ZingPhysicsScore>
-9.833912

> <ZingStrainEnergy>
0

> <ZingPiecewiseLinear_ES>
-0.868154

> <ZingLigandDesolvation>
0.251944

> <ZingIntramolecularHBond>
0

> <DF_RANK>
1

> <DF_RECIP_RANK>
1

> <DF_NORMALIZED_SCORE>
1

> <DF_ZSCORE>
1.471332239

> <MVT_STAR_RATING>
0

$$$$
