Fenebrutinib
       ACL          3D   0.00000     0.00000     0
CORINA Classic 5.0.0 0026  29.08.2023
 93100  0  0  1  0  0  0  0  0999 V2000
   21.1125    5.4463   -2.0027 C   0  0  0  0  0  0  0  0  0  0  0  0
   21.8323    4.5388   -1.0030 C   0  0  1  0  0  0  0  0  0  0  0  0
   23.2012    5.1343   -0.6659 C   0  0  0  0  0  0  0  0  0  0  0  0
   23.8736    4.2809    0.3236 N   0  0  2  0  0  0  0  0  0  0  0  0
   23.0736    4.1725    1.5515 C   0  0  0  0  0  0  0  0  0  0  0  0
   21.7046    3.5769    1.2145 C   0  0  0  0  0  0  0  0  0  0  0  0
   21.0323    4.4304    0.2249 N   0  0  2  0  0  0  0  0  0  0  0  0
   19.7450    3.9558   -0.0551 C   0  0  0  0  0  0  0  0  0  0  0  0
   19.1055    4.3144   -1.2319 C   0  0  0  0  0  0  0  0  0  0  0  0
   17.8902    3.8754   -1.5002 N   0  0  0  0  0  0  0  0  0  0  0  0
   17.2372    3.0824   -0.6657 C   0  0  0  0  0  0  0  0  0  0  0  0
   17.8161    2.6814    0.5341 C   0  0  0  0  0  0  0  0  0  0  0  0
   19.0884    3.1218    0.8488 C   0  0  0  0  0  0  0  0  0  0  0  0
   15.9556    2.6449   -0.9921 N   0  0  0  0  0  0  0  0  0  0  0  0
   15.1997    1.9299   -0.0545 C   0  0  0  0  0  0  0  0  0  0  0  0
   14.0286    1.3322   -0.4238 C   0  0  0  0  0  0  0  0  0  0  0  0
   13.2872    0.6171    0.5428 C   0  0  0  0  0  0  0  0  0  0  0  0
   13.7476    0.5335    1.8243 C   0  0  0  0  0  0  0  0  0  0  0  0
   14.9126    1.1310    2.1819 N   0  0  0  0  0  0  0  0  0  0  0  0
   15.6440    1.8147    1.2821 C   0  0  0  0  0  0  0  0  0  0  0  0
   16.6911    2.3407    1.6228 O   0  0  0  0  0  0  0  0  0  0  0  0
   15.3839    1.0248    3.5650 C   0  0  0  0  0  0  0  0  0  0  0  0
   12.0127   -0.0411    0.1656 C   0  0  0  0  0  0  0  0  0  0  0  0
   11.3118   -0.8235    1.0838 C   0  0  0  0  0  0  0  0  0  0  0  0
   10.1198   -1.4162    0.6901 C   0  0  0  0  0  0  0  0  0  0  0  0
    9.6575   -1.2534   -0.5402 N   0  0  0  0  0  0  0  0  0  0  0  0
   10.2978   -0.5249   -1.4358 C   0  0  0  0  0  0  0  0  0  0  0  0
   11.4845    0.1019   -1.1229 C   0  0  0  0  0  0  0  0  0  0  0  0
    9.4051   -2.1955    1.5973 N   0  0  0  0  0  0  0  0  0  0  0  0
    9.3872   -3.6437    1.4269 C   0  0  0  0  0  0  0  0  0  0  0  0
    9.5106   -4.3906    2.7588 C   0  0  0  0  0  0  0  0  0  0  0  0
    8.5840   -3.7983    3.7277 N   0  0  0  0  0  0  0  0  0  0  0  0
    7.9569   -4.3665    4.7806 C   0  0  0  0  0  0  0  0  0  0  0  0
    7.2220   -3.4135    5.4080 C   0  0  0  0  0  0  0  0  0  0  0  0
    6.5041   -4.0036    6.6015 C   0  0  0  0  0  0  0  0  0  0  0  0
    6.5414   -5.5305    6.3757 C   0  0  0  0  0  0  0  0  0  0  0  0
    7.7984   -5.6945    5.4947 C   0  0  0  0  0  0  0  0  0  0  0  0
    5.2894   -6.0041    5.6346 C   0  0  0  0  0  0  0  0  0  0  0  0
    6.7032   -6.2753    7.7023 C   0  0  0  0  0  0  0  0  0  0  0  0
    7.3894   -2.2037    4.7138 C   0  0  0  0  0  0  0  0  0  0  0  0
    8.2279   -2.4597    3.6708 C   0  0  0  0  0  0  0  0  0  0  0  0
    8.7425   -1.5859    2.6088 C   0  0  0  0  0  0  0  0  0  0  0  0
    8.5819   -0.3799    2.6360 O   0  0  0  0  0  0  0  0  0  0  0  0
   11.8375   -1.0174    2.4828 C   0  0  0  0  0  0  0  0  0  0  0  0
   11.2590   -0.0389    3.3488 O   0  0  0  0  0  0  0  0  0  0  0  0
   25.2241    4.7788    0.6173 C   0  0  0  0  0  0  0  0  0  0  0  0
   26.1749    4.7497   -0.5941 C   0  0  0  0  0  0  0  0  0  0  0  0
   27.1555    4.2385    0.3310 O   0  0  0  0  0  0  0  0  0  0  0  0
   26.1575    3.7193    1.2328 C   0  0  0  0  0  0  0  0  0  0  0  0
   20.9227    6.4158   -1.5420 H   0  0  0  0  0  0  0  0  0  0  0  0
   21.7362    5.5799   -2.8866 H   0  0  0  0  0  0  0  0  0  0  0  0
   20.1659    4.9897   -2.2917 H   0  0  0  0  0  0  0  0  0  0  0  0
   21.9639    3.5489   -1.4398 H   0  0  0  0  0  0  0  0  0  0  0  0
   23.8069    5.1888   -1.5706 H   0  0  0  0  0  0  0  0  0  0  0  0
   23.0711    6.1353   -0.2546 H   0  0  0  0  0  0  0  0  0  0  0  0
   23.5862    3.5257    2.2636 H   0  0  0  0  0  0  0  0  0  0  0  0
   22.9420    5.1624    1.9884 H   0  0  0  0  0  0  0  0  0  0  0  0
   21.0990    3.5225    2.1191 H   0  0  0  0  0  0  0  0  0  0  0  0
   21.8348    2.5761    0.8028 H   0  0  0  0  0  0  0  0  0  0  0  0
   19.6076    4.9603   -1.9370 H   0  0  0  0  0  0  0  0  0  0  0  0
   17.2782    2.0345    1.2113 H   0  0  0  0  0  0  0  0  0  0  0  0
   19.5626    2.8261    1.7729 H   0  0  0  0  0  0  0  0  0  0  0  0
   15.5866    2.8355   -1.8687 H   0  0  0  0  0  0  0  0  0  0  0  0
   13.6740    1.4055   -1.4412 H   0  0  0  0  0  0  0  0  0  0  0  0
   13.1792   -0.0140    2.5617 H   0  0  0  0  0  0  0  0  0  0  0  0
   16.0142    0.1415    3.6673 H   0  0  0  0  0  0  0  0  0  0  0  0
   15.9599    1.9138    3.8218 H   0  0  0  0  0  0  0  0  0  0  0  0
   14.5283    0.9402    4.2349 H   0  0  0  0  0  0  0  0  0  0  0  0
    9.8854   -0.4183   -2.4282 H   0  0  0  0  0  0  0  0  0  0  0  0
   12.0002    0.6964   -1.8624 H   0  0  0  0  0  0  0  0  0  0  0  0
    8.4532   -3.9300    0.9436 H   0  0  0  0  0  0  0  0  0  0  0  0
   10.2176   -3.9328    0.7827 H   0  0  0  0  0  0  0  0  0  0  0  0
   10.5309   -4.3079    3.1332 H   0  0  0  0  0  0  0  0  0  0  0  0
    9.2607   -5.4411    2.6111 H   0  0  0  0  0  0  0  0  0  0  0  0
    5.4733   -3.6509    6.6358 H   0  0  0  0  0  0  0  0  0  0  0  0
    7.0249   -3.7441    7.5232 H   0  0  0  0  0  0  0  0  0  0  0  0
    7.6521   -6.4975    4.7723 H   0  0  0  0  0  0  0  0  0  0  0  0
    8.6715   -5.8970    6.1151 H   0  0  0  0  0  0  0  0  0  0  0  0
    5.3986   -7.0564    5.3725 H   0  0  0  0  0  0  0  0  0  0  0  0
    4.4177   -5.8781    6.2768 H   0  0  0  0  0  0  0  0  0  0  0  0
    5.1600   -5.4150    4.7266 H   0  0  0  0  0  0  0  0  0  0  0  0
    7.5627   -5.8759    8.2407 H   0  0  0  0  0  0  0  0  0  0  0  0
    5.8042   -6.1441    8.3046 H   0  0  0  0  0  0  0  0  0  0  0  0
    6.8579   -7.3364    7.5068 H   0  0  0  0  0  0  0  0  0  0  0  0
    6.9397   -1.2530    4.9597 H   0  0  0  0  0  0  0  0  0  0  0  0
   11.5745   -2.0149    2.8348 H   0  0  0  0  0  0  0  0  0  0  0  0
   12.9218   -0.9064    2.4822 H   0  0  0  0  0  0  0  0  0  0  0  0
   11.6623   -0.0033    4.2270 H   0  0  0  0  0  0  0  0  0  0  0  0
   25.2208    5.7276    1.1539 H   0  0  0  0  0  0  0  0  0  0  0  0
   25.8838    4.0374   -1.3662 H   0  0  0  0  0  0  0  0  0  0  0  0
   26.4148    5.7363   -0.9905 H   0  0  0  0  0  0  0  0  0  0  0  0
   26.3835    3.8889    2.2856 H   0  0  0  0  0  0  0  0  0  0  0  0
   25.8610    2.6925    1.0186 H   0  0  0  0  0  0  0  0  0  0  0  0
  1  2  1  0  0  0  0
  2  7  1  0  0  0  0
  2  3  1  0  0  0  0
  3  4  1  0  0  0  0
  4  5  1  0  0  0  0
  5  6  1  0  0  0  0
  6  7  1  0  0  0  0
  7  8  1  0  0  0  0
  8 13  1  0  0  0  0
  8  9  2  0  0  0  0
  9 10  1  0  0  0  0
 10 11  2  0  0  0  0
 11 12  1  0  0  0  0
 12 13  2  0  0  0  0
 11 14  1  0  0  0  0
 14 15  1  0  0  0  0
 15 20  1  0  0  0  0
 15 16  2  0  0  0  0
 16 17  1  0  0  0  0
 17 18  2  0  0  0  0
 18 19  1  0  0  0  0
 19 20  1  0  0  0  0
 20 21  2  0  0  0  0
 19 22  1  0  0  0  0
 17 23  1  0  0  0  0
 23 28  1  0  0  0  0
 23 24  2  0  0  0  0
 24 25  1  0  0  0  0
 25 26  2  0  0  0  0
 26 27  1  0  0  0  0
 27 28  2  0  0  0  0
 25 29  1  0  0  0  0
 29 42  1  0  0  0  0
 29 30  1  0  0  0  0
 30 31  1  0  0  0  0
 31 32  1  0  0  0  0
 32 41  1  0  0  0  0
 32 33  1  0  0  0  0
 33 37  1  0  0  0  0
 33 34  2  0  0  0  0
 34 35  1  0  0  0  0
 35 36  1  0  0  0  0
 36 37  1  0  0  0  0
 36 38  1  0  0  0  0
 36 39  1  0  0  0  0
 34 40  1  0  0  0  0
 40 41  2  0  0  0  0
 41 42  1  0  0  0  0
 42 43  2  0  0  0  0
 24 44  1  0  0  0  0
 44 45  1  0  0  0  0
  4 46  1  0  0  0  0
 46 49  1  0  0  0  0
 46 47  1  0  0  0  0
 47 48  1  0  0  0  0
 48 49  1  0  0  0  0
  1 50  1  0  0  0  0
  1 51  1  0  0  0  0
  1 52  1  0  0  0  0
  2 53  1  0  0  0  0
  3 54  1  0  0  0  0
  3 55  1  0  0  0  0
  5 56  1  0  0  0  0
  5 57  1  0  0  0  0
  6 58  1  0  0  0  0
  6 59  1  0  0  0  0
  9 60  1  0  0  0  0
 12 61  1  0  0  0  0
 13 62  1  0  0  0  0
 14 63  1  0  0  0  0
 16 64  1  0  0  0  0
 18 65  1  0  0  0  0
 22 66  1  0  0  0  0
 22 67  1  0  0  0  0
 22 68  1  0  0  0  0
 27 69  1  0  0  0  0
 28 70  1  0  0  0  0
 30 71  1  0  0  0  0
 30 72  1  0  0  0  0
 31 73  1  0  0  0  0
 31 74  1  0  0  0  0
 35 75  1  0  0  0  0
 35 76  1  0  0  0  0
 37 77  1  0  0  0  0
 37 78  1  0  0  0  0
 38 79  1  0  0  0  0
 38 80  1  0  0  0  0
 38 81  1  0  0  0  0
 39 82  1  0  0  0  0
 39 83  1  0  0  0  0
 39 84  1  0  0  0  0
 40 85  1  0  0  0  0
 44 86  1  0  0  0  0
 44 87  1  0  0  0  0
 45 88  1  0  0  0  0
 46 89  1  0  0  0  0
 47 90  1  0  0  0  0
 47 91  1  0  0  0  0
 49 92  1  0  0  0  0
 49 93  1  0  0  0  0
M  END
> <ZingBumps>
0

> <ZingRotBonds>
7

> <ZingDreiding>
12.122611

> <ZingProteinDesolvation>
4.302582

> <ZingFitScore>
9.933258

> <ZingPiecewiseLinear_VDW>
-26.238865

> <ZingSeed>
1189499780

> <ZingScore>
-7.479364

> <Score>
-7.479364

> <ZingPhysicsScore>
-14.196486

> <ZingStrainEnergy>
0

> <ZingPiecewiseLinear_ES>
-12.533259

> <ZingLigandDesolvation>
8.143607

> <ZingIntramolecularHBond>
0.006838

> <DF_RANK>
17

> <DF_RECIP_RANK>
0.05882352941

> <DF_NORMALIZED_SCORE>
0.627819066

> <DF_ZSCORE>
-0.2937266883

> <MVT_STAR_RATING>
0

$$$$
