Flunitrazepam
       ACL          3D   0.00000     0.00000     0
CORINA Classic 5.0.0 0026  29.08.2023
 35 37  0  0  0  0  0  0  1  0999 V2000
    7.1496    1.2505   -2.7672 C   0  0  0  0  0  0  0  0  0  0  0  0
    7.7380    0.3833   -1.7435 N   0  0  0  0  0  0  0  0  0  0  0  0
    7.3103    0.5341   -0.4919 C   0  0  0  0  0  0  0  0  0  0  0  0
    6.4247    1.3304   -0.2623 O   0  0  0  0  0  0  0  0  0  0  0  0
    7.8972   -0.2576    0.6451 C   0  0  0  0  0  0  0  0  0  0  0  0
    9.3094    0.0942    0.7875 N   0  0  0  0  0  0  0  0  0  0  0  0
   10.1667   -0.1490   -0.1403 C   0  0  0  0  0  0  0  0  0  0  0  0
   11.5707    0.2537    0.1017 C   0  0  0  0  0  0  0  0  0  0  0  0
   12.3984    0.5886   -0.9703 C   0  0  0  0  0  0  0  0  0  0  0  0
   13.7039    0.9676   -0.7383 C   0  0  0  0  0  0  0  0  0  0  0  0
   14.1985    1.0066    0.5540 C   0  0  0  0  0  0  0  0  0  0  0  0
   13.3872    0.6716    1.6218 C   0  0  0  0  0  0  0  0  0  0  0  0
   12.0744    0.2947    1.4041 C   0  0  0  0  0  0  0  0  0  0  0  0
   11.2817   -0.0333    2.4478 F   0  0  0  0  0  0  0  0  0  0  0  0
    9.8561   -0.7979   -1.4238 C   0  0  0  0  0  0  0  0  0  0  0  0
   10.7774   -1.7334   -1.9195 C   0  0  0  0  0  0  0  0  0  0  0  0
   10.5448   -2.3791   -3.1115 C   0  0  0  0  0  0  0  0  0  0  0  0
    9.3945   -2.1079   -3.8341 C   0  0  0  0  0  0  0  0  0  0  0  0
    8.4814   -1.1915   -3.3613 C   0  0  0  0  0  0  0  0  0  0  0  0
    8.7006   -0.5263   -2.1530 C   0  0  0  0  0  0  0  0  0  0  0  0
   11.5244   -3.3639   -3.6227 N   0  3  0  0  0  0  0  0  0  0  0  0
   11.3419   -3.9014   -4.7004 O   0  0  0  0  0  0  0  0  0  0  0  0
   12.5129   -3.6369   -2.9657 O   0  5  0  0  0  0  0  0  0  0  0  0
    6.2703    0.7662   -3.1919 H   0  0  0  0  0  0  0  0  0  0  0  0
    6.8596    2.1996   -2.3164 H   0  0  0  0  0  0  0  0  0  0  0  0
    7.8811    1.4307   -3.5548 H   0  0  0  0  0  0  0  0  0  0  0  0
    7.8059   -1.3230    0.4338 H   0  0  0  0  0  0  0  0  0  0  0  0
    7.3674   -0.0218    1.5682 H   0  0  0  0  0  0  0  0  0  0  0  0
   12.0162    0.5549   -1.9799 H   0  0  0  0  0  0  0  0  0  0  0  0
   14.3437    1.2308   -1.5677 H   0  0  0  0  0  0  0  0  0  0  0  0
   15.2229    1.3006    0.7288 H   0  0  0  0  0  0  0  0  0  0  0  0
   13.7790    0.7043    2.6277 H   0  0  0  0  0  0  0  0  0  0  0  0
   11.6760   -1.9482   -1.3605 H   0  0  0  0  0  0  0  0  0  0  0  0
    9.2134   -2.6156   -4.7700 H   0  0  0  0  0  0  0  0  0  0  0  0
    7.5869   -0.9856   -3.9304 H   0  0  0  0  0  0  0  0  0  0  0  0
  1  2  1  0  0  0  0
  2 20  1  0  0  0  0
  2  3  1  0  0  0  0
  3  4  2  0  0  0  0
  3  5  1  0  0  0  0
  5  6  1  0  0  0  0
  6  7  2  0  0  0  0
  7  8  1  0  0  0  0
  8 13  2  0  0  0  0
  8  9  1  0  0  0  0
  9 10  2  0  0  0  0
 10 11  1  0  0  0  0
 11 12  2  0  0  0  0
 12 13  1  0  0  0  0
 13 14  1  0  0  0  0
  7 15  1  0  0  0  0
 15 20  2  0  0  0  0
 15 16  1  0  0  0  0
 16 17  2  0  0  0  0
 17 18  1  0  0  0  0
 18 19  2  0  0  0  0
 19 20  1  0  0  0  0
 17 21  1  0  0  0  0
 21 22  2  0  0  0  0
 21 23  1  0  0  0  0
  1 24  1  0  0  0  0
  1 25  1  0  0  0  0
  1 26  1  0  0  0  0
  5 27  1  0  0  0  0
  5 28  1  0  0  0  0
  9 29  1  0  0  0  0
 10 30  1  0  0  0  0
 11 31  1  0  0  0  0
 12 32  1  0  0  0  0
 16 33  1  0  0  0  0
 18 34  1  0  0  0  0
 19 35  1  0  0  0  0
M  CHG  2  21   1  23  -1
M  END
> <ZingBumps>
0

> <ZingRotBonds>
2

> <ZingDreiding>
1.139767

> <ZingProteinDesolvation>
5.340012

> <ZingFitScore>
10.461539

> <ZingPiecewiseLinear_VDW>
-14.528067

> <ZingSeed>
497619569

> <ZingScore>
-6.359584

> <Score>
-6.359584

> <ZingPhysicsScore>
-6.0247

> <ZingStrainEnergy>
0

> <ZingPiecewiseLinear_ES>
-2.545177

> <ZingLigandDesolvation>
4.568765

> <ZingIntramolecularHBond>
0

> <DF_RANK>
21

> <DF_RECIP_RANK>
0.04761904762

> <DF_NORMALIZED_SCORE>
0.4628882931

> <DF_ZSCORE>
-1.075906823

> <MVT_STAR_RATING>
0

$$$$
