Ibuprofen
       ACL          3D   0.00000     0.00000     0
CORINA Classic 5.0.0 0026  29.08.2023
 33 33  0  0  1  0  0  0  0  0999 V2000
   12.5066   -4.5667    3.2642 C   0  0  0  0  0  0  0  0  0  0  0  0
   12.4949   -3.0371    3.2259 C   0  0  0  0  0  0  0  0  0  0  0  0
   11.0672   -2.5324    3.4449 C   0  0  0  0  0  0  0  0  0  0  0  0
   13.0023   -2.5572    1.8647 C   0  0  0  0  0  0  0  0  0  0  0  0
   13.6921   -1.2272    2.0262 C   0  0  0  0  0  0  0  0  0  0  0  0
   12.9508   -0.0604    2.0330 C   0  0  0  0  0  0  0  0  0  0  0  0
   13.5831    1.1593    2.1864 C   0  0  0  0  0  0  0  0  0  0  0  0
   14.9578    1.2130    2.3216 C   0  0  0  0  0  0  0  0  0  0  0  0
   15.6995    0.0466    2.3095 C   0  0  0  0  0  0  0  0  0  0  0  0
   15.0668   -1.1735    2.1618 C   0  0  0  0  0  0  0  0  0  0  0  0
   15.6477    2.5430    2.4827 C   0  0  1  0  0  0  0  0  0  0  0  0
   14.9142    3.3451    2.4012 H   0  0  0  0  0  0  0  0  0  0  0  0
   16.3212    2.6053    3.8551 C   0  0  0  0  0  0  0  0  0  0  0  0
   16.6886    2.7029    1.4047 C   0  0  0  0  0  0  0  0  0  0  0  0
   16.3570    2.7231    0.2430 O   0  0  0  0  0  0  0  0  0  0  0  0
   17.9840    2.8227    1.7350 O   0  0  0  0  0  0  0  0  0  0  0  0
   11.8593   -4.9548    2.4778 H   0  0  0  0  0  0  0  0  0  0  0  0
   13.5236   -4.9262    3.1082 H   0  0  0  0  0  0  0  0  0  0  0  0
   12.1451   -4.9086    4.2341 H   0  0  0  0  0  0  0  0  0  0  0  0
   13.1421   -2.6490    4.0124 H   0  0  0  0  0  0  0  0  0  0  0  0
   10.7058   -2.8743    4.4147 H   0  0  0  0  0  0  0  0  0  0  0  0
   11.0589   -1.4428    3.4178 H   0  0  0  0  0  0  0  0  0  0  0  0
   10.4199   -2.9205    2.6585 H   0  0  0  0  0  0  0  0  0  0  0  0
   13.7065   -3.2853    1.4621 H   0  0  0  0  0  0  0  0  0  0  0  0
   12.1606   -2.4492    1.1806 H   0  0  0  0  0  0  0  0  0  0  0  0
   11.8773   -0.1019    1.9225 H   0  0  0  0  0  0  0  0  0  0  0  0
   13.0035    2.0705    2.1962 H   0  0  0  0  0  0  0  0  0  0  0  0
   16.7736    0.0886    2.4152 H   0  0  0  0  0  0  0  0  0  0  0  0
   15.6464   -2.0847    2.1521 H   0  0  0  0  0  0  0  0  0  0  0  0
   16.8202    3.5673    3.9716 H   0  0  0  0  0  0  0  0  0  0  0  0
   15.5683    2.4897    4.6348 H   0  0  0  0  0  0  0  0  0  0  0  0
   17.0547    1.8032    3.9366 H   0  0  0  0  0  0  0  0  0  0  0  0
   18.2007    2.8008    2.6772 H   0  0  0  0  0  0  0  0  0  0  0  0
  1  2  1  0  0  0  0
  2  3  1  0  0  0  0
  2  4  1  0  0  0  0
  4  5  1  0  0  0  0
  5 10  2  0  0  0  0
  5  6  1  0  0  0  0
  6  7  2  0  0  0  0
  7  8  1  0  0  0  0
  8  9  2  0  0  0  0
  9 10  1  0  0  0  0
  8 11  1  0  0  0  0
 11 12  1  0  0  0  0
 11 13  1  0  0  0  0
 11 14  1  0  0  0  0
 14 15  2  0  0  0  0
 14 16  1  0  0  0  0
  1 17  1  0  0  0  0
  1 18  1  0  0  0  0
  1 19  1  0  0  0  0
  2 20  1  0  0  0  0
  3 21  1  0  0  0  0
  3 22  1  0  0  0  0
  3 23  1  0  0  0  0
  4 24  1  0  0  0  0
  4 25  1  0  0  0  0
  6 26  1  0  0  0  0
  7 27  1  0  0  0  0
  9 28  1  0  0  0  0
 10 29  1  0  0  0  0
 13 30  1  0  0  0  0
 13 31  1  0  0  0  0
 13 32  1  0  0  0  0
 16 33  1  0  0  0  0
M  END
> <ZingBumps>
0

> <ZingRotBonds>
4

> <ZingDreiding>
0.967235

> <ZingProteinDesolvation>
4.301733

> <ZingFitScore>
10.408601

> <ZingPiecewiseLinear_VDW>
-17.783614

> <ZingSeed>
1585795635

> <ZingScore>
-6.980871

> <Score>
-6.980871

> <ZingPhysicsScore>
-9.838145

> <ZingStrainEnergy>
0

> <ZingPiecewiseLinear_ES>
-0.999636

> <ZingLigandDesolvation>
3.676136

> <ZingIntramolecularHBond>
0

> <DF_RANK>
19

> <DF_RECIP_RANK>
0.05263157895

> <DF_NORMALIZED_SCORE>
0.5543967547

> <DF_ZSCORE>
-0.6419301944

> <MVT_STAR_RATING>
0

$$$$
