Microconazole
       ACL          3D   0.00000     0.00000     0
CORINA Classic 5.0.0 0026  29.08.2023
 39 41  0  0  1  0  0  0  0  0999 V2000
   15.7286    2.9676   -0.2591 Cl  0  0  0  0  0  0  0  0  0  0  0  0
   15.3542    1.4445    0.4849 C   0  0  0  0  0  0  0  0  0  0  0  0
   15.1601    1.3718    1.8531 C   0  0  0  0  0  0  0  0  0  0  0  0
   14.8678    0.1584    2.4464 C   0  0  0  0  0  0  0  0  0  0  0  0
   14.7586   -0.9817    1.6720 C   0  0  0  0  0  0  0  0  0  0  0  0
   14.4345   -2.3036    2.3190 C   0  0  0  0  0  0  0  0  0  0  0  0
   13.2154   -2.8139    1.7754 O   0  0  0  0  0  0  0  0  0  0  0  0
   12.5304   -3.7242    2.6380 C   0  0  1  0  0  0  0  0  0  0  0  0
   11.0866   -3.8912    2.1601 C   0  0  0  0  0  0  0  0  0  0  0  0
   10.1730   -3.6954    3.2886 N   0  0  0  0  0  0  0  0  0  0  0  0
    9.9775   -2.5320    3.9828 C   0  0  0  0  0  0  0  0  0  0  0  0
    9.0589   -2.7945    4.9320 C   0  0  0  0  0  0  0  0  0  0  0  0
    8.7033   -4.0829    4.8203 N   0  0  0  0  0  0  0  0  0  0  0  0
    9.3623   -4.6274    3.8343 C   0  0  0  0  0  0  0  0  0  0  0  0
   13.2260   -5.0609    2.6120 C   0  0  0  0  0  0  0  0  0  0  0  0
   13.7991   -5.5189    1.4402 C   0  0  0  0  0  0  0  0  0  0  0  0
   14.4420   -6.7421    1.4170 C   0  0  0  0  0  0  0  0  0  0  0  0
   14.5025   -7.5141    2.5639 C   0  0  0  0  0  0  0  0  0  0  0  0
   15.3045   -9.0534    2.5328 Cl  0  0  0  0  0  0  0  0  0  0  0  0
   13.9244   -7.0589    3.7349 C   0  0  0  0  0  0  0  0  0  0  0  0
   13.2859   -5.8318    3.7590 C   0  0  0  0  0  0  0  0  0  0  0  0
   12.5595   -5.2598    5.2284 Cl  0  0  0  0  0  0  0  0  0  0  0  0
   14.9472   -0.9093    0.3035 C   0  0  0  0  0  0  0  0  0  0  0  0
   14.8095   -2.3410   -0.6687 Cl  0  0  0  0  0  0  0  0  0  0  0  0
   15.2452    0.3042   -0.2903 C   0  0  0  0  0  0  0  0  0  0  0  0
   15.2413    2.2628    2.4580 H   0  0  0  0  0  0  0  0  0  0  0  0
   14.7201    0.1014    3.5147 H   0  0  0  0  0  0  0  0  0  0  0  0
   15.2419   -3.0100    2.1263 H   0  0  0  0  0  0  0  0  0  0  0  0
   14.3225   -2.1641    3.3942 H   0  0  0  0  0  0  0  0  0  0  0  0
   12.5335   -3.3328    3.6553 H   0  0  0  0  0  0  0  0  0  0  0  0
   10.8722   -3.1536    1.3868 H   0  0  0  0  0  0  0  0  0  0  0  0
   10.9521   -4.8935    1.7535 H   0  0  0  0  0  0  0  0  0  0  0  0
   10.4655   -1.5854    3.8034 H   0  0  0  0  0  0  0  0  0  0  0  0
    8.6757   -2.0907    5.6561 H   0  0  0  0  0  0  0  0  0  0  0  0
    9.2757   -5.6539    3.5101 H   0  0  0  0  0  0  0  0  0  0  0  0
   13.7482   -4.9187    0.5438 H   0  0  0  0  0  0  0  0  0  0  0  0
   14.8934   -7.0975    0.5025 H   0  0  0  0  0  0  0  0  0  0  0  0
   13.9718   -7.6609    4.6304 H   0  0  0  0  0  0  0  0  0  0  0  0
   15.3928    0.3611   -1.3586 H   0  0  0  0  0  0  0  0  0  0  0  0
  1  2  1  0  0  0  0
  2 25  2  0  0  0  0
  2  3  1  0  0  0  0
  3  4  2  0  0  0  0
  4  5  1  0  0  0  0
  5  6  1  0  0  0  0
  6  7  1  0  0  0  0
  7  8  1  0  0  0  0
  8  9  1  0  0  0  0
  9 10  1  0  0  0  0
 10 14  1  0  0  0  0
 10 11  1  0  0  0  0
 11 12  2  0  0  0  0
 12 13  1  0  0  0  0
 13 14  2  0  0  0  0
  8 15  1  0  0  0  0
 15 21  2  0  0  0  0
 15 16  1  0  0  0  0
 16 17  2  0  0  0  0
 17 18  1  0  0  0  0
 18 19  1  0  0  0  0
 18 20  2  0  0  0  0
 20 21  1  0  0  0  0
 21 22  1  0  0  0  0
  5 23  2  0  0  0  0
 23 24  1  0  0  0  0
 23 25  1  0  0  0  0
  3 26  1  0  0  0  0
  4 27  1  0  0  0  0
  6 28  1  0  0  0  0
  6 29  1  0  0  0  0
  8 30  1  0  0  0  0
  9 31  1  0  0  0  0
  9 32  1  0  0  0  0
 11 33  1  0  0  0  0
 12 34  1  0  0  0  0
 14 35  1  0  0  0  0
 16 36  1  0  0  0  0
 17 37  1  0  0  0  0
 20 38  1  0  0  0  0
 25 39  1  0  0  0  0
M  END
> <ZingBumps>
0

> <ZingRotBonds>
6

> <ZingDreiding>
0.08322

> <ZingProteinDesolvation>
7.21276

> <ZingFitScore>
15.293165

> <ZingPiecewiseLinear_VDW>
-17.687137

> <ZingSeed>
898779440

> <ZingScore>
-9.62592

> <Score>
-9.62592

> <ZingPhysicsScore>
-10.743564

> <ZingStrainEnergy>
0

> <ZingPiecewiseLinear_ES>
-0.352407

> <ZingLigandDesolvation>
0

> <ZingIntramolecularHBond>
0

> <DF_RANK>
3

> <DF_RECIP_RANK>
0.3333333333

> <DF_NORMALIZED_SCORE>
0.9439821875

> <DF_ZSCORE>
1.205669141

> <MVT_STAR_RATING>
0

$$$$
