Naproxen
       ACL          3D   0.00000     0.00000     0
CORINA Classic 5.0.0 0026  29.08.2023
 31 32  0  0  1  0  0  0  0  0999 V2000
   12.6179   -3.1518   -1.9294 C   0  0  0  0  0  0  0  0  0  0  0  0
   12.5594   -1.7352   -1.7507 O   0  0  0  0  0  0  0  0  0  0  0  0
   13.4497   -1.1855   -0.8838 C   0  0  0  0  0  0  0  0  0  0  0  0
   14.2389   -2.0185   -0.0844 C   0  0  0  0  0  0  0  0  0  0  0  0
   15.1386   -1.4982    0.7925 C   0  0  0  0  0  0  0  0  0  0  0  0
   15.2808   -0.1036    0.9002 C   0  0  0  0  0  0  0  0  0  0  0  0
   16.2011    0.4676    1.7954 C   0  0  0  0  0  0  0  0  0  0  0  0
   16.3128    1.8217    1.8741 C   0  0  0  0  0  0  0  0  0  0  0  0
   15.5268    2.6541    1.0795 C   0  0  0  0  0  0  0  0  0  0  0  0
   14.6290    2.1368    0.1970 C   0  0  0  0  0  0  0  0  0  0  0  0
   14.4817    0.7428    0.0914 C   0  0  0  0  0  0  0  0  0  0  0  0
   13.5618    0.1733   -0.8042 C   0  0  0  0  0  0  0  0  0  0  0  0
   17.3011    2.4302    2.8355 C   0  0  2  0  0  0  0  0  0  0  0  0
   17.8379    1.6368    3.3555 H   0  0  0  0  0  0  0  0  0  0  0  0
   16.5555    3.2942    3.8546 C   0  0  0  0  0  0  0  0  0  0  0  0
   18.2816    3.2848    2.0742 C   0  0  0  0  0  0  0  0  0  0  0  0
   19.0202    4.0330    2.6695 O   0  0  0  0  0  0  0  0  0  0  0  0
   18.3342    3.2148    0.7349 O   0  0  0  0  0  0  0  0  0  0  0  0
   12.4402   -3.6462   -0.9743 H   0  0  0  0  0  0  0  0  0  0  0  0
   11.8556   -3.4595   -2.6452 H   0  0  0  0  0  0  0  0  0  0  0  0
   13.6025   -3.4303   -2.3050 H   0  0  0  0  0  0  0  0  0  0  0  0
   14.1325   -3.0903   -0.1650 H   0  0  0  0  0  0  0  0  0  0  0  0
   15.7413   -2.1535    1.4038 H   0  0  0  0  0  0  0  0  0  0  0  0
   16.8166   -0.1649    2.4182 H   0  0  0  0  0  0  0  0  0  0  0  0
   15.6349    3.7255    1.1617 H   0  0  0  0  0  0  0  0  0  0  0  0
   14.0301    2.7939   -0.4160 H   0  0  0  0  0  0  0  0  0  0  0  0
   12.9468    0.8064   -1.4267 H   0  0  0  0  0  0  0  0  0  0  0  0
   17.2703    3.7343    4.5499 H   0  0  0  0  0  0  0  0  0  0  0  0
   16.0186    4.0877    3.3346 H   0  0  0  0  0  0  0  0  0  0  0  0
   15.8463    2.6761    4.4053 H   0  0  0  0  0  0  0  0  0  0  0  0
   17.7235    2.6019    0.3029 H   0  0  0  0  0  0  0  0  0  0  0  0
  1  2  1  0  0  0  0
  2  3  1  0  0  0  0
  3 12  2  0  0  0  0
  3  4  1  0  0  0  0
  4  5  2  0  0  0  0
  5  6  1  0  0  0  0
  6 11  2  0  0  0  0
  6  7  1  0  0  0  0
  7  8  2  0  0  0  0
  8  9  1  0  0  0  0
  9 10  2  0  0  0  0
 10 11  1  0  0  0  0
 11 12  1  0  0  0  0
  8 13  1  0  0  0  0
 13 14  1  0  0  0  0
 13 15  1  0  0  0  0
 13 16  1  0  0  0  0
 16 17  2  0  0  0  0
 16 18  1  0  0  0  0
  1 19  1  0  0  0  0
  1 20  1  0  0  0  0
  1 21  1  0  0  0  0
  4 22  1  0  0  0  0
  5 23  1  0  0  0  0
  7 24  1  0  0  0  0
  9 25  1  0  0  0  0
 10 26  1  0  0  0  0
 12 27  1  0  0  0  0
 15 28  1  0  0  0  0
 15 29  1  0  0  0  0
 15 30  1  0  0  0  0
 18 31  1  0  0  0  0
M  END
> <ZingBumps>
0

> <ZingRotBonds>
3

> <ZingDreiding>
3.412325

> <ZingProteinDesolvation>
2.583341

> <ZingFitScore>
10.454683

> <ZingPiecewiseLinear_VDW>
-19.591821

> <ZingSeed>
2143708521

> <ZingScore>
-7.723166

> <Score>
-7.723166

> <ZingPhysicsScore>
-14.066342

> <ZingStrainEnergy>
0

> <ZingPiecewiseLinear_ES>
-1.387838

> <ZingLigandDesolvation>
0.917652

> <ZingIntramolecularHBond>
0

> <DF_RANK>
14

> <DF_RECIP_RANK>
0.07142857143

> <DF_NORMALIZED_SCORE>
0.6637283092

> <DF_ZSCORE>
-0.1234279857

> <MVT_STAR_RATING>
0

$$$$
