Norfloxacin
       ACL          3D   0.00000     0.00000     0
CORINA Classic 5.0.0 0026  29.08.2023
 41 43  0  0  0  0  0  0  0  0999 V2000
    8.2347    0.7403    0.7443 C   0  0  0  0  0  0  0  0  0  0  0  0
    9.2627    1.3914   -0.1832 C   0  0  0  0  0  0  0  0  0  0  0  0
    9.9093    0.3589   -0.9969 N   0  0  0  0  0  0  0  0  0  0  0  0
    9.1524   -0.3727   -1.8252 C   0  0  0  0  0  0  0  0  0  0  0  0
    9.6846   -1.3633   -2.6247 C   0  0  0  0  0  0  0  0  0  0  0  0
    8.8208   -2.1437   -3.5213 C   0  0  0  0  0  0  0  0  0  0  0  0
    9.3081   -2.9711   -4.2669 O   0  0  0  0  0  0  0  0  0  0  0  0
    7.4879   -1.9423   -3.5172 O   0  0  0  0  0  0  0  0  0  0  0  0
   11.1323   -1.6253   -2.5653 C   0  0  0  0  0  0  0  0  0  0  0  0
   11.6498   -2.4896   -3.2518 O   0  0  0  0  0  0  0  0  0  0  0  0
   11.9288   -0.8005   -1.6418 C   0  0  0  0  0  0  0  0  0  0  0  0
   13.3090   -0.9819   -1.5204 C   0  0  0  0  0  0  0  0  0  0  0  0
   14.0218   -0.2063   -0.6511 C   0  0  0  0  0  0  0  0  0  0  0  0
   15.3553   -0.3852   -0.5287 F   0  0  0  0  0  0  0  0  0  0  0  0
   13.3792    0.7757    0.1080 C   0  0  0  0  0  0  0  0  0  0  0  0
   12.0114    0.9667   -0.0014 C   0  0  0  0  0  0  0  0  0  0  0  0
   11.2717    0.1808   -0.8774 C   0  0  0  0  0  0  0  0  0  0  0  0
   14.1187    1.5641    0.9860 N   0  0  0  0  0  0  0  0  0  0  0  0
   14.8254    0.7340    1.9714 C   0  0  0  0  0  0  0  0  0  0  0  0
   15.5600    1.6388    2.9636 C   0  0  0  0  0  0  0  0  0  0  0  0
   16.5006    2.5000    2.2334 N   0  0  0  0  0  0  0  0  0  0  0  0
   15.7939    3.3302    1.2480 C   0  0  0  0  0  0  0  0  0  0  0  0
   15.0593    2.4254    0.2559 C   0  0  0  0  0  0  0  0  0  0  0  0
    7.4827    0.2239    0.1478 H   0  0  0  0  0  0  0  0  0  0  0  0
    8.7355    0.0246    1.3963 H   0  0  0  0  0  0  0  0  0  0  0  0
    7.7536    1.5085    1.3497 H   0  0  0  0  0  0  0  0  0  0  0  0
   10.0146    1.9078    0.4134 H   0  0  0  0  0  0  0  0  0  0  0  0
    8.7618    2.1070   -0.8352 H   0  0  0  0  0  0  0  0  0  0  0  0
    8.0905   -0.1806   -1.8689 H   0  0  0  0  0  0  0  0  0  0  0  0
    7.1466   -1.2740   -2.9072 H   0  0  0  0  0  0  0  0  0  0  0  0
   13.8099   -1.7363   -2.1090 H   0  0  0  0  0  0  0  0  0  0  0  0
   11.5213    1.7240    0.5924 H   0  0  0  0  0  0  0  0  0  0  0  0
   14.1064    0.1147    2.5077 H   0  0  0  0  0  0  0  0  0  0  0  0
   15.5455    0.0955    1.4596 H   0  0  0  0  0  0  0  0  0  0  0  0
   16.1084    1.0250    3.6782 H   0  0  0  0  0  0  0  0  0  0  0  0
   14.8375    2.2580    3.4953 H   0  0  0  0  0  0  0  0  0  0  0  0
   17.2244    1.9526    1.7924 H   0  0  0  0  0  0  0  0  0  0  0  0
   16.5128    3.9495    0.7118 H   0  0  0  0  0  0  0  0  0  0  0  0
   15.0739    3.9688    1.7596 H   0  0  0  0  0  0  0  0  0  0  0  0
   15.7820    1.8061   -0.2755 H   0  0  0  0  0  0  0  0  0  0  0  0
   14.5108    3.0388   -0.4589 H   0  0  0  0  0  0  0  0  0  0  0  0
  1  2  1  0  0  0  0
  2  3  1  0  0  0  0
  3 17  1  0  0  0  0
  3  4  1  0  0  0  0
  4  5  2  0  0  0  0
  5  6  1  0  0  0  0
  6  7  2  0  0  0  0
  6  8  1  0  0  0  0
  5  9  1  0  0  0  0
  9 10  2  0  0  0  0
  9 11  1  0  0  0  0
 11 17  2  0  0  0  0
 11 12  1  0  0  0  0
 12 13  2  0  0  0  0
 13 14  1  0  0  0  0
 13 15  1  0  0  0  0
 15 16  2  0  0  0  0
 16 17  1  0  0  0  0
 15 18  1  0  0  0  0
 18 23  1  0  0  0  0
 18 19  1  0  0  0  0
 19 20  1  0  0  0  0
 20 21  1  0  0  0  0
 21 22  1  0  0  0  0
 22 23  1  0  0  0  0
  1 24  1  0  0  0  0
  1 25  1  0  0  0  0
  1 26  1  0  0  0  0
  2 27  1  0  0  0  0
  2 28  1  0  0  0  0
  4 29  1  0  0  0  0
  8 30  1  0  0  0  0
 12 31  1  0  0  0  0
 16 32  1  0  0  0  0
 19 33  1  0  0  0  0
 19 34  1  0  0  0  0
 20 35  1  0  0  0  0
 20 36  1  0  0  0  0
 21 37  1  0  0  0  0
 22 38  1  0  0  0  0
 22 39  1  0  0  0  0
 23 40  1  0  0  0  0
 23 41  1  0  0  0  0
M  END
> <ZingBumps>
0

> <ZingRotBonds>
3

> <ZingDreiding>
1.510903

> <ZingProteinDesolvation>
7.237853

> <ZingFitScore>
10.163936

> <ZingPiecewiseLinear_VDW>
-23.333789

> <ZingSeed>
420014735

> <ZingScore>
-7.618684

> <Score>
-7.618684

> <ZingPhysicsScore>
-14.323978

> <ZingStrainEnergy>
0

> <ZingPiecewiseLinear_ES>
-2.084219

> <ZingLigandDesolvation>
2.345275

> <ZingIntramolecularHBond>
0

> <DF_RANK>
16

> <DF_RECIP_RANK>
0.0625

> <DF_NORMALIZED_SCORE>
0.6483393069

> <DF_ZSCORE>
-0.1964099508

> <MVT_STAR_RATING>
0

$$$$
