Prednisolone
       ACL          3D   0.00000     0.00000     0
CORINA Classic 5.0.0 0026  29.08.2023
 54 57  0  0  1  0  0  0  0  0999 V2000
   16.5588    0.4670    1.1941 C   0  0  0  0  0  0  0  0  0  0  0  0
   15.7140    1.7306    1.3682 C   0  0  2  0  0  0  0  0  0  0  0  0
   15.0062    1.7009    2.7093 C   0  0  0  0  0  0  0  0  0  0  0  0
   14.2163    0.3843    2.7775 C   0  0  2  0  0  0  0  0  0  0  0  0
   13.6661    0.3478    3.7177 H   0  0  0  0  0  0  0  0  0  0  0  0
   15.1324   -0.7116    2.7328 O   0  0  0  0  0  0  0  0  0  0  0  0
   13.2314    0.2571    1.6191 C   0  0  1  0  0  0  0  0  0  0  0  0
   12.4547    1.0146    1.7240 H   0  0  0  0  0  0  0  0  0  0  0  0
   13.9278    0.4320    0.2603 C   0  0  1  0  0  0  0  0  0  0  0  0
   14.6685   -0.3558    0.1225 H   0  0  0  0  0  0  0  0  0  0  0  0
   12.8866    0.3883   -0.8598 C   0  0  0  0  0  0  0  0  0  0  0  0
   12.2259   -0.9934   -0.8944 C   0  0  0  0  0  0  0  0  0  0  0  0
   11.6598   -1.2809    0.4837 C   0  0  0  0  0  0  0  0  0  0  0  0
   10.3897   -1.6459    0.5913 C   0  0  0  0  0  0  0  0  0  0  0  0
    9.7942   -1.9001    1.9121 C   0  0  0  0  0  0  0  0  0  0  0  0
    8.6394   -2.2699    2.0133 O   0  0  0  0  0  0  0  0  0  0  0  0
   10.6274   -1.6972    3.1094 C   0  0  0  0  0  0  0  0  0  0  0  0
   11.8946   -1.3381    2.9777 C   0  0  0  0  0  0  0  0  0  0  0  0
   12.5692   -1.1232    1.6660 C   0  0  2  0  0  0  0  0  0  0  0  0
   13.6745   -2.1747    1.5498 C   0  0  0  0  0  0  0  0  0  0  0  0
   14.6155    1.7849    0.2726 C   0  0  2  0  0  0  0  0  0  0  0  0
   13.8932    2.5748    0.4795 H   0  0  0  0  0  0  0  0  0  0  0  0
   15.4372    2.1275   -0.9749 C   0  0  0  0  0  0  0  0  0  0  0  0
   16.4349    3.1963   -0.4510 C   0  0  0  0  0  0  0  0  0  0  0  0
   16.5620    2.9644    1.0752 C   0  0  1  0  0  0  0  0  0  0  0  0
   16.0593    4.0943    1.7912 O   0  0  0  0  0  0  0  0  0  0  0  0
   18.0001    2.7095    1.4467 C   0  0  0  0  0  0  0  0  0  0  0  0
   18.8230    2.5237    0.5826 O   0  0  0  0  0  0  0  0  0  0  0  0
   18.4112    2.6868    2.8962 C   0  0  0  0  0  0  0  0  0  0  0  0
   17.2953    3.0460    3.7134 O   0  0  0  0  0  0  0  0  0  0  0  0
   17.2073    0.3411    2.0611 H   0  0  0  0  0  0  0  0  0  0  0  0
   15.9029   -0.3987    1.1022 H   0  0  0  0  0  0  0  0  0  0  0  0
   17.1681    0.5583    0.2949 H   0  0  0  0  0  0  0  0  0  0  0  0
   14.3239    2.5474    2.7878 H   0  0  0  0  0  0  0  0  0  0  0  0
   15.7372    1.7374    3.5170 H   0  0  0  0  0  0  0  0  0  0  0  0
   14.9409   -1.4106    3.3731 H   0  0  0  0  0  0  0  0  0  0  0  0
   12.1273    1.1493   -0.6792 H   0  0  0  0  0  0  0  0  0  0  0  0
   13.3735    0.5818   -1.8156 H   0  0  0  0  0  0  0  0  0  0  0  0
   12.9674   -1.7494   -1.1526 H   0  0  0  0  0  0  0  0  0  0  0  0
   11.4223   -0.9986   -1.6307 H   0  0  0  0  0  0  0  0  0  0  0  0
    9.7874   -1.7579   -0.2982 H   0  0  0  0  0  0  0  0  0  0  0  0
   10.2053   -1.8409    4.0929 H   0  0  0  0  0  0  0  0  0  0  0  0
   12.4758   -1.1922    3.8762 H   0  0  0  0  0  0  0  0  0  0  0  0
   14.1629   -2.2969    2.5166 H   0  0  0  0  0  0  0  0  0  0  0  0
   13.2406   -3.1251    1.2390 H   0  0  0  0  0  0  0  0  0  0  0  0
   14.4076   -1.8510    0.8108 H   0  0  0  0  0  0  0  0  0  0  0  0
   14.7994    2.5443   -1.7543 H   0  0  0  0  0  0  0  0  0  0  0  0
   15.9695    1.2501   -1.3422 H   0  0  0  0  0  0  0  0  0  0  0  0
   16.0484    4.1965   -0.6466 H   0  0  0  0  0  0  0  0  0  0  0  0
   17.4053    3.0693   -0.9308 H   0  0  0  0  0  0  0  0  0  0  0  0
   15.6780    4.7801    1.2261 H   0  0  0  0  0  0  0  0  0  0  0  0
   19.2218    3.3980    3.0552 H   0  0  0  0  0  0  0  0  0  0  0  0
   18.7491    1.6853    3.1625 H   0  0  0  0  0  0  0  0  0  0  0  0
   17.4653    2.9786    4.6630 H   0  0  0  0  0  0  0  0  0  0  0  0
  1  2  1  0  0  0  0
  2 21  1  0  0  0  0
  2 25  1  0  0  0  0
  2  3  1  0  0  0  0
  3  4  1  0  0  0  0
  4  5  1  0  0  0  0
  4  6  1  0  0  0  0
  4  7  1  0  0  0  0
  7  8  1  0  0  0  0
  7 19  1  0  0  0  0
  7  9  1  0  0  0  0
  9 10  1  0  0  0  0
  9 11  1  0  0  0  0
 11 12  1  0  0  0  0
 12 13  1  0  0  0  0
 13 19  1  0  0  0  0
 13 14  2  0  0  0  0
 14 15  1  0  0  0  0
 15 16  2  0  0  0  0
 15 17  1  0  0  0  0
 17 18  2  0  0  0  0
 18 19  1  0  0  0  0
 19 20  1  0  0  0  0
  9 21  1  0  0  0  0
 21 22  1  0  0  0  0
 21 23  1  0  0  0  0
 23 24  1  0  0  0  0
 24 25  1  0  0  0  0
 25 26  1  0  0  0  0
 25 27  1  0  0  0  0
 27 28  2  0  0  0  0
 27 29  1  0  0  0  0
 29 30  1  0  0  0  0
  1 31  1  0  0  0  0
  1 32  1  0  0  0  0
  1 33  1  0  0  0  0
  3 34  1  0  0  0  0
  3 35  1  0  0  0  0
  6 36  1  0  0  0  0
 11 37  1  0  0  0  0
 11 38  1  0  0  0  0
 12 39  1  0  0  0  0
 12 40  1  0  0  0  0
 14 41  1  0  0  0  0
 17 42  1  0  0  0  0
 18 43  1  0  0  0  0
 20 44  1  0  0  0  0
 20 45  1  0  0  0  0
 20 46  1  0  0  0  0
 23 47  1  0  0  0  0
 23 48  1  0  0  0  0
 24 49  1  0  0  0  0
 24 50  1  0  0  0  0
 26 51  1  0  0  0  0
 29 52  1  0  0  0  0
 29 53  1  0  0  0  0
 30 54  1  0  0  0  0
M  END
> <ZingBumps>
0

> <ZingRotBonds>
2

> <ZingDreiding>
2.133869

> <ZingProteinDesolvation>
4.462478

> <ZingFitScore>
8.063783

> <ZingPiecewiseLinear_VDW>
-28.239538

> <ZingSeed>
1478985274

> <ZingScore>
-8.365081

> <Score>
-8.365081

> <ZingPhysicsScore>
-25.015011

> <ZingStrainEnergy>
0

> <ZingPiecewiseLinear_ES>
-10.283714

> <ZingLigandDesolvation>
9.340398

> <ZingIntramolecularHBond>
-2.428505

> <DF_RANK>
9

> <DF_RECIP_RANK>
0.1111111111

> <DF_NORMALIZED_SCORE>
0.758275039

> <DF_ZSCORE>
0.3249575555

> <MVT_STAR_RATING>
0

$$$$
