Rofecoxib
       ACL          3D   0.00000     0.00000     0
CORINA Classic 5.0.0 0026  29.08.2023
 36 38  0  0  0  0  0  0  0  0999 V2000
   14.2834   -0.8252    1.2583 C   0  0  0  0  0  0  0  0  0  0  0  0
   14.1263    0.8844    1.8444 S   0  0  0  0  0  0  0  0  0  0  0  0
   12.9712    1.4978    1.2887 O   0  0  0  0  0  0  0  0  0  0  0  0
   14.3983    0.9610    3.2370 O   0  0  0  0  0  0  0  0  0  0  0  0
   15.4741    1.7331    1.0909 C   0  0  0  0  0  0  0  0  0  0  0  0
   16.7473    1.6095    1.6200 C   0  0  0  0  0  0  0  0  0  0  0  0
   17.8083    2.2656    1.0333 C   0  0  0  0  0  0  0  0  0  0  0  0
   17.5933    3.0680   -0.0934 C   0  0  0  0  0  0  0  0  0  0  0  0
   16.3017    3.1919   -0.6184 C   0  0  0  0  0  0  0  0  0  0  0  0
   15.2528    2.5242   -0.0232 C   0  0  0  0  0  0  0  0  0  0  0  0
   18.7169    3.7755   -0.7215 C   0  0  0  0  0  0  0  0  0  0  0  0
   19.9382    4.0171   -0.1696 C   0  0  0  0  0  0  0  0  0  0  0  0
   20.7619    4.7493   -1.1372 C   0  0  0  0  0  0  0  0  0  0  0  0
   21.9066    5.1104   -0.9449 O   0  0  0  0  0  0  0  0  0  0  0  0
   20.0645    4.9676   -2.2669 O   0  0  0  0  0  0  0  0  0  0  0  0
   18.7424    4.3840   -2.1045 C   0  0  0  0  0  0  0  0  0  0  0  0
   20.3664    3.6044    1.1868 C   0  0  0  0  0  0  0  0  0  0  0  0
   19.4174    3.2200    2.1341 C   0  0  0  0  0  0  0  0  0  0  0  0
   19.8230    2.8311    3.3943 C   0  0  0  0  0  0  0  0  0  0  0  0
   21.1669    2.8327    3.7227 C   0  0  0  0  0  0  0  0  0  0  0  0
   22.1125    3.2184    2.7893 C   0  0  0  0  0  0  0  0  0  0  0  0
   21.7199    3.6040    1.5241 C   0  0  0  0  0  0  0  0  0  0  0  0
   14.2188   -0.8437    0.1703 H   0  0  0  0  0  0  0  0  0  0  0  0
   13.4801   -1.4292    1.6803 H   0  0  0  0  0  0  0  0  0  0  0  0
   15.2456   -1.2299    1.5721 H   0  0  0  0  0  0  0  0  0  0  0  0
   16.9106    0.9941    2.4923 H   0  0  0  0  0  0  0  0  0  0  0  0
   18.8018    2.1646    1.4446 H   0  0  0  0  0  0  0  0  0  0  0  0
   16.1272    3.8093   -1.4873 H   0  0  0  0  0  0  0  0  0  0  0  0
   14.2557    2.6187   -0.4271 H   0  0  0  0  0  0  0  0  0  0  0  0
   18.5785    3.6123   -2.8566 H   0  0  0  0  0  0  0  0  0  0  0  0
   17.9787    5.1573   -2.1878 H   0  0  0  0  0  0  0  0  0  0  0  0
   18.3676    3.2226    1.8801 H   0  0  0  0  0  0  0  0  0  0  0  0
   19.0895    2.5290    4.1271 H   0  0  0  0  0  0  0  0  0  0  0  0
   21.4792    2.5315    4.7117 H   0  0  0  0  0  0  0  0  0  0  0  0
   23.1602    3.2180    3.0518 H   0  0  0  0  0  0  0  0  0  0  0  0
   22.4591    3.9044    0.7962 H   0  0  0  0  0  0  0  0  0  0  0  0
  1  2  1  0  0  0  0
  2  3  2  0  0  0  0
  2  4  2  0  0  0  0
  2  5  1  0  0  0  0
  5 10  2  0  0  0  0
  5  6  1  0  0  0  0
  6  7  2  0  0  0  0
  7  8  1  0  0  0  0
  8  9  2  0  0  0  0
  9 10  1  0  0  0  0
  8 11  1  0  0  0  0
 11 16  1  0  0  0  0
 11 12  2  0  0  0  0
 12 13  1  0  0  0  0
 13 14  2  0  0  0  0
 13 15  1  0  0  0  0
 15 16  1  0  0  0  0
 12 17  1  0  0  0  0
 17 22  2  0  0  0  0
 17 18  1  0  0  0  0
 18 19  2  0  0  0  0
 19 20  1  0  0  0  0
 20 21  2  0  0  0  0
 21 22  1  0  0  0  0
  1 23  1  0  0  0  0
  1 24  1  0  0  0  0
  1 25  1  0  0  0  0
  6 26  1  0  0  0  0
  7 27  1  0  0  0  0
  9 28  1  0  0  0  0
 10 29  1  0  0  0  0
 16 30  1  0  0  0  0
 16 31  1  0  0  0  0
 18 32  1  0  0  0  0
 19 33  1  0  0  0  0
 20 34  1  0  0  0  0
 21 35  1  0  0  0  0
 22 36  1  0  0  0  0
M  END
> <ZingBumps>
0

> <ZingRotBonds>
3

> <ZingDreiding>
4.081472

> <ZingProteinDesolvation>
2.302814

> <ZingFitScore>
8.887836

> <ZingPiecewiseLinear_VDW>
-23.480092

> <ZingSeed>
1193545827

> <ZingScore>
-7.006249

> <Score>
-7.006249

> <ZingPhysicsScore>
-14.549718

> <ZingStrainEnergy>
0

> <ZingPiecewiseLinear_ES>
1.437806

> <ZingLigandDesolvation>
1.108283

> <ZingIntramolecularHBond>
0

> <DF_RANK>
18

> <DF_RECIP_RANK>
0.05555555556

> <DF_NORMALIZED_SCORE>
0.5581346435

> <DF_ZSCORE>
-0.6242033485

> <MVT_STAR_RATING>
0

$$$$
