Sulfathiazole
       ACL          3D   0.00000     0.00000     0
CORINA Classic 5.0.0 0026  29.08.2023
 25 26  0  0  0  0  0  0  0  0999 V2000
   10.8096   -0.0372   -0.5181 N   0  0  0  0  0  0  0  0  0  0  0  0
   12.0872    0.4573   -0.2455 C   0  0  0  0  0  0  0  0  0  0  0  0
   13.1373    0.1893   -1.1143 C   0  0  0  0  0  0  0  0  0  0  0  0
   14.3994    0.6793   -0.8416 C   0  0  0  0  0  0  0  0  0  0  0  0
   14.6195    1.4312    0.2980 C   0  0  0  0  0  0  0  0  0  0  0  0
   13.5751    1.7045    1.1622 C   0  0  0  0  0  0  0  0  0  0  0  0
   12.3105    1.2176    0.8954 C   0  0  0  0  0  0  0  0  0  0  0  0
   16.2329    2.0477    0.6463 S   0  0  0  0  0  0  0  0  0  0  0  0
   16.1383    2.7446    1.8810 O   0  0  0  0  0  0  0  0  0  0  0  0
   17.1305    0.9675    0.4302 O   0  0  0  0  0  0  0  0  0  0  0  0
   16.5828    3.1840   -0.5064 N   0  0  0  0  0  0  0  0  0  0  0  0
   17.8677    3.6933   -0.6100 C   0  0  0  0  0  0  0  0  0  0  0  0
   18.7578    3.6615    0.3328 N   0  0  0  0  0  0  0  0  0  0  0  0
   19.9364    4.1920    0.0593 C   0  0  0  0  0  0  0  0  0  0  0  0
   20.0432    4.7036   -1.1673 C   0  0  0  0  0  0  0  0  0  0  0  0
   18.5080    4.4617   -1.9966 S   0  0  0  0  0  0  0  0  0  0  0  0
   10.6549   -0.5682   -1.3149 H   0  0  0  0  0  0  0  0  0  0  0  0
   10.0771    0.1506    0.0894 H   0  0  0  0  0  0  0  0  0  0  0  0
   12.9671   -0.4019   -2.0020 H   0  0  0  0  0  0  0  0  0  0  0  0
   15.2163    0.4713   -1.5167 H   0  0  0  0  0  0  0  0  0  0  0  0
   13.7496    2.2954    2.0492 H   0  0  0  0  0  0  0  0  0  0  0  0
   11.4963    1.4274    1.5732 H   0  0  0  0  0  0  0  0  0  0  0  0
   15.8885    3.4933   -1.1091 H   0  0  0  0  0  0  0  0  0  0  0  0
   20.7467    4.2133    0.7730 H   0  0  0  0  0  0  0  0  0  0  0  0
   20.9184    5.1828   -1.5804 H   0  0  0  0  0  0  0  0  0  0  0  0
  1  2  1  0  0  0  0
  2  7  2  0  0  0  0
  2  3  1  0  0  0  0
  3  4  2  0  0  0  0
  4  5  1  0  0  0  0
  5  6  2  0  0  0  0
  6  7  1  0  0  0  0
  5  8  1  0  0  0  0
  8  9  2  0  0  0  0
  8 10  2  0  0  0  0
  8 11  1  0  0  0  0
 11 12  1  0  0  0  0
 12 16  1  0  0  0  0
 12 13  2  0  0  0  0
 13 14  1  0  0  0  0
 14 15  2  0  0  0  0
 15 16  1  0  0  0  0
  1 17  1  0  0  0  0
  1 18  1  0  0  0  0
  3 19  1  0  0  0  0
  4 20  1  0  0  0  0
  6 21  1  0  0  0  0
  7 22  1  0  0  0  0
 11 23  1  0  0  0  0
 14 24  1  0  0  0  0
 15 25  1  0  0  0  0
M  END
> <ZingBumps>
0

> <ZingRotBonds>
3

> <ZingDreiding>
-0.082636

> <ZingProteinDesolvation>
1.908256

> <ZingFitScore>
9.668102

> <ZingPiecewiseLinear_VDW>
-18.543464

> <ZingSeed>
1499650471

> <ZingScore>
-7.91864

> <Score>
-7.91864

> <ZingPhysicsScore>
-17.57593

> <ZingStrainEnergy>
0

> <ZingPiecewiseLinear_ES>
-4.183232

> <ZingLigandDesolvation>
3.325146

> <ZingIntramolecularHBond>
0

> <DF_RANK>
13

> <DF_RECIP_RANK>
0.07692307692

> <DF_NORMALIZED_SCORE>
0.6925193913

> <DF_ZSCORE>
0.01311301319

> <MVT_STAR_RATING>
0

$$$$
