Alprazolam
       ACL          3D   0.00000     0.00000     0
CORINA Classic 5.0.0 0026  29.08.2023
 35 38  0  0  0  0  0  0  0  0999 V2000
   16.8121    4.7340    4.9764 C   0  0  0  0  0  0  0  0  0  0  0  0
   18.2291    4.2465    4.8175 C   0  0  0  0  0  0  0  0  0  0  0  0
   19.2321    4.4924    5.6197 N   0  0  0  0  0  0  0  0  0  0  0  0
   20.3013    3.9333    5.1699 N   0  0  0  0  0  0  0  0  0  0  0  0
   20.0357    3.3151    4.0552 C   0  0  0  0  0  0  0  0  0  0  0  0
   20.9989    2.5662    3.1693 C   0  0  0  0  0  0  0  0  0  0  0  0
   20.9683    3.1944    1.8439 N   0  0  0  0  0  0  0  0  0  0  0  0
   19.8929    3.2411    1.1377 C   0  0  0  0  0  0  0  0  0  0  0  0
   20.0160    3.8810   -0.1926 C   0  0  0  0  0  0  0  0  0  0  0  0
   21.2733    4.2176   -0.6940 C   0  0  0  0  0  0  0  0  0  0  0  0
   21.3819    4.8086   -1.9361 C   0  0  0  0  0  0  0  0  0  0  0  0
   20.2462    5.0770   -2.6792 C   0  0  0  0  0  0  0  0  0  0  0  0
   18.9960    4.7506   -2.1848 C   0  0  0  0  0  0  0  0  0  0  0  0
   18.8749    4.1545   -0.9464 C   0  0  0  0  0  0  0  0  0  0  0  0
   18.5604    2.7381    1.4895 C   0  0  0  0  0  0  0  0  0  0  0  0
   17.8080    2.1077    0.4869 C   0  0  0  0  0  0  0  0  0  0  0  0
   16.5246    1.6790    0.7407 C   0  0  0  0  0  0  0  0  0  0  0  0
   15.6080    0.9017   -0.5120 Cl  0  0  0  0  0  0  0  0  0  0  0  0
   15.9620    1.8664    1.9934 C   0  0  0  0  0  0  0  0  0  0  0  0
   16.6945    2.4689    2.9947 C   0  0  0  0  0  0  0  0  0  0  0  0
   17.9972    2.8954    2.7574 C   0  0  0  0  0  0  0  0  0  0  0  0
   18.7093    3.4675    3.8125 N   0  0  0  0  0  0  0  0  0  0  0  0
   16.2419    4.0097    5.5581 H   0  0  0  0  0  0  0  0  0  0  0  0
   16.8139    5.6939    5.4928 H   0  0  0  0  0  0  0  0  0  0  0  0
   16.3556    4.8509    3.9936 H   0  0  0  0  0  0  0  0  0  0  0  0
   22.0053    2.6269    3.5837 H   0  0  0  0  0  0  0  0  0  0  0  0
   20.6933    1.5229    3.0906 H   0  0  0  0  0  0  0  0  0  0  0  0
   22.1602    4.0128   -0.1128 H   0  0  0  0  0  0  0  0  0  0  0  0
   22.3551    5.0664   -2.3271 H   0  0  0  0  0  0  0  0  0  0  0  0
   20.3360    5.5434   -3.6492 H   0  0  0  0  0  0  0  0  0  0  0  0
   18.1130    4.9631   -2.7694 H   0  0  0  0  0  0  0  0  0  0  0  0
   17.8984    3.8997   -0.5616 H   0  0  0  0  0  0  0  0  0  0  0  0
   18.2392    1.9575   -0.4919 H   0  0  0  0  0  0  0  0  0  0  0  0
   14.9504    1.5407    2.1854 H   0  0  0  0  0  0  0  0  0  0  0  0
   16.2535    2.6106    3.9703 H   0  0  0  0  0  0  0  0  0  0  0  0
  1  2  1  0  0  0  0
  2 22  1  0  0  0  0
  2  3  2  0  0  0  0
  3  4  1  0  0  0  0
  4  5  2  0  0  0  0
  5 22  1  0  0  0  0
  5  6  1  0  0  0  0
  6  7  1  0  0  0  0
  7  8  2  0  0  0  0
  8  9  1  0  0  0  0
  9 14  2  0  0  0  0
  9 10  1  0  0  0  0
 10 11  2  0  0  0  0
 11 12  1  0  0  0  0
 12 13  2  0  0  0  0
 13 14  1  0  0  0  0
  8 15  1  0  0  0  0
 15 21  2  0  0  0  0
 15 16  1  0  0  0  0
 16 17  2  0  0  0  0
 17 18  1  0  0  0  0
 17 19  1  0  0  0  0
 19 20  2  0  0  0  0
 20 21  1  0  0  0  0
 21 22  1  0  0  0  0
  1 23  1  0  0  0  0
  1 24  1  0  0  0  0
  1 25  1  0  0  0  0
  6 26  1  0  0  0  0
  6 27  1  0  0  0  0
 10 28  1  0  0  0  0
 11 29  1  0  0  0  0
 12 30  1  0  0  0  0
 13 31  1  0  0  0  0
 14 32  1  0  0  0  0
 16 33  1  0  0  0  0
 19 34  1  0  0  0  0
 20 35  1  0  0  0  0
M  END
> <ZingBumps>
0

> <ZingRotBonds>
1

> <ZingDreiding>
3.00325

> <ZingProteinDesolvation>
1.934426

> <ZingFitScore>
9.678885

> <ZingPiecewiseLinear_VDW>
-23.044739

> <ZingSeed>
775065226

> <ZingScore>
-7.643625

> <Score>
-7.643625

> <ZingPhysicsScore>
-15.925849

> <ZingStrainEnergy>
0

> <ZingPiecewiseLinear_ES>
0.274454

> <ZingLigandDesolvation>
1.906761

> <ZingIntramolecularHBond>
0

> <DF_RANK>
15

> <DF_RECIP_RANK>
0.06666666667

> <DF_NORMALIZED_SCORE>
0.6520128306

> <DF_ZSCORE>
-0.1789883548

> <MVT_STAR_RATING>
0

$$$$
