Estradiol
       ACL          3D   0.00000     0.00000     0
CORINA Classic 5.0.0 0026  29.08.2023
 44 47  0  0  1  0  0  0  0  0999 V2000
   15.5594    0.0386    0.1087 C   0  0  0  0  0  0  0  0  0  0  0  0
   14.7679    1.2272    0.6582 C   0  0  2  0  0  0  0  0  0  0  0  0
   14.7879    2.3859   -0.3192 C   0  0  0  0  0  0  0  0  0  0  0  0
   16.2619    2.7417   -0.5918 C   0  0  0  0  0  0  0  0  0  0  0  0
   16.9827    3.0779    0.7054 C   0  0  1  0  0  0  0  0  0  0  0  0
   16.4889    3.9506    1.1327 H   0  0  0  0  0  0  0  0  0  0  0  0
   16.8743    1.9318    1.7198 C   0  0  1  0  0  0  0  0  0  0  0  0
   17.3194    1.0282    1.3033 H   0  0  0  0  0  0  0  0  0  0  0  0
   17.6326    2.3466    2.9802 C   0  0  0  0  0  0  0  0  0  0  0  0
   19.1266    2.3545    2.6580 C   0  0  0  0  0  0  0  0  0  0  0  0
   19.4073    3.1083    1.3848 C   0  0  0  0  0  0  0  0  0  0  0  0
   20.7221    3.4748    1.1300 C   0  0  0  0  0  0  0  0  0  0  0  0
   21.0522    4.1526   -0.0306 C   0  0  0  0  0  0  0  0  0  0  0  0
   22.3418    4.5082   -0.2701 O   0  0  0  0  0  0  0  0  0  0  0  0
   20.0604    4.4676   -0.9486 C   0  0  0  0  0  0  0  0  0  0  0  0
   18.7541    4.1108   -0.6909 C   0  0  0  0  0  0  0  0  0  0  0  0
   18.4228    3.4306    0.4736 C   0  0  0  0  0  0  0  0  0  0  0  0
   15.4006    1.7198    1.9897 C   0  0  2  0  0  0  0  0  0  0  0  0
   14.9412    2.6612    2.2912 H   0  0  0  0  0  0  0  0  0  0  0  0
   15.0322    0.6233    2.9828 C   0  0  0  0  0  0  0  0  0  0  0  0
   13.6954    0.0348    2.4664 C   0  0  0  0  0  0  0  0  0  0  0  0
   13.3853    0.7605    1.1286 C   0  0  2  0  0  0  0  0  0  0  0  0
   12.7302    1.6155    1.2964 H   0  0  0  0  0  0  0  0  0  0  0  0
   12.8033   -0.1427    0.1865 O   0  0  0  0  0  0  0  0  0  0  0  0
   15.5445   -0.7745    0.8344 H   0  0  0  0  0  0  0  0  0  0  0  0
   15.1076   -0.2986   -0.8242 H   0  0  0  0  0  0  0  0  0  0  0  0
   16.5899    0.3423   -0.0756 H   0  0  0  0  0  0  0  0  0  0  0  0
   14.3002    2.0936   -1.2491 H   0  0  0  0  0  0  0  0  0  0  0  0
   14.2746    3.2441    0.1143 H   0  0  0  0  0  0  0  0  0  0  0  0
   16.3060    3.6015   -1.2603 H   0  0  0  0  0  0  0  0  0  0  0  0
   16.7542    1.8930   -1.0666 H   0  0  0  0  0  0  0  0  0  0  0  0
   17.3174    3.3437    3.2877 H   0  0  0  0  0  0  0  0  0  0  0  0
   17.4323    1.6345    3.7808 H   0  0  0  0  0  0  0  0  0  0  0  0
   19.4736    1.3270    2.5484 H   0  0  0  0  0  0  0  0  0  0  0  0
   19.6663    2.8268    3.4788 H   0  0  0  0  0  0  0  0  0  0  0  0
   21.4942    3.2286    1.8439 H   0  0  0  0  0  0  0  0  0  0  0  0
   22.4716    4.9777   -1.1055 H   0  0  0  0  0  0  0  0  0  0  0  0
   20.3100    4.9937   -1.8582 H   0  0  0  0  0  0  0  0  0  0  0  0
   17.9814    4.3590   -1.4034 H   0  0  0  0  0  0  0  0  0  0  0  0
   15.8031   -0.1471    2.9980 H   0  0  0  0  0  0  0  0  0  0  0  0
   14.8992    1.0452    3.9790 H   0  0  0  0  0  0  0  0  0  0  0  0
   13.7995   -1.0367    2.2955 H   0  0  0  0  0  0  0  0  0  0  0  0
   12.9003    0.2227    3.1879 H   0  0  0  0  0  0  0  0  0  0  0  0
   12.0435   -0.6329    0.5292 H   0  0  0  0  0  0  0  0  0  0  0  0
  1  2  1  0  0  0  0
  2 18  1  0  0  0  0
  2 22  1  0  0  0  0
  2  3  1  0  0  0  0
  3  4  1  0  0  0  0
  4  5  1  0  0  0  0
  5  6  1  0  0  0  0
  5 17  1  0  0  0  0
  5  7  1  0  0  0  0
  7  8  1  0  0  0  0
  7  9  1  0  0  0  0
  9 10  1  0  0  0  0
 10 11  1  0  0  0  0
 11 17  2  0  0  0  0
 11 12  1  0  0  0  0
 12 13  2  0  0  0  0
 13 14  1  0  0  0  0
 13 15  1  0  0  0  0
 15 16  2  0  0  0  0
 16 17  1  0  0  0  0
  7 18  1  0  0  0  0
 18 19  1  0  0  0  0
 18 20  1  0  0  0  0
 20 21  1  0  0  0  0
 21 22  1  0  0  0  0
 22 23  1  0  0  0  0
 22 24  1  0  0  0  0
  1 25  1  0  0  0  0
  1 26  1  0  0  0  0
  1 27  1  0  0  0  0
  3 28  1  0  0  0  0
  3 29  1  0  0  0  0
  4 30  1  0  0  0  0
  4 31  1  0  0  0  0
  9 32  1  0  0  0  0
  9 33  1  0  0  0  0
 10 34  1  0  0  0  0
 10 35  1  0  0  0  0
 12 36  1  0  0  0  0
 14 37  1  0  0  0  0
 15 38  1  0  0  0  0
 16 39  1  0  0  0  0
 20 40  1  0  0  0  0
 20 41  1  0  0  0  0
 21 42  1  0  0  0  0
 21 43  1  0  0  0  0
 24 44  1  0  0  0  0
M  END
> <ZingBumps>
0

> <ZingRotBonds>
0

> <ZingDreiding>
0

> <ZingProteinDesolvation>
2.014972

> <ZingFitScore>
10.900912

> <ZingPiecewiseLinear_VDW>
-26.394656

> <ZingSeed>
2118611748

> <ZingScore>
-9.694932

> <Score>
-9.694932

> <ZingPhysicsScore>
-24.326276

> <ZingStrainEnergy>
0

> <ZingPiecewiseLinear_ES>
-0.865449

> <ZingLigandDesolvation>
0.918857

> <ZingIntramolecularHBond>
0

> <DF_RANK>
2

> <DF_RECIP_RANK>
0.5

> <DF_NORMALIZED_SCORE>
0.9541468649

> <DF_ZSCORE>
1.253874874

> <MVT_STAR_RATING>
0

$$$$
