Diazepam
       ACL          3D   0.00000     0.00000     0
CORINA Classic 5.0.0 0026  29.08.2023
 33 35  0  0  0  0  0  0  0  0999 V2000
   14.3094   -2.9733    2.9037 C   0  0  0  0  0  0  0  0  0  0  0  0
   14.3368   -2.8919    1.4413 N   0  0  0  0  0  0  0  0  0  0  0  0
   14.1230   -4.0153    0.7603 C   0  0  0  0  0  0  0  0  0  0  0  0
   13.9682   -5.0538    1.3674 O   0  0  0  0  0  0  0  0  0  0  0  0
   14.0691   -4.0306   -0.7431 C   0  0  0  0  0  0  0  0  0  0  0  0
   12.9377   -3.2170   -1.1846 N   0  0  0  0  0  0  0  0  0  0  0  0
   12.8802   -1.9527   -0.9565 C   0  0  0  0  0  0  0  0  0  0  0  0
   11.6822   -1.2238   -1.4341 C   0  0  0  0  0  0  0  0  0  0  0  0
   11.2594   -0.0669   -0.7800 C   0  0  0  0  0  0  0  0  0  0  0  0
   10.1462    0.6107   -1.2332 C   0  0  0  0  0  0  0  0  0  0  0  0
    9.4430    0.1384   -2.3271 C   0  0  0  0  0  0  0  0  0  0  0  0
    9.8542   -1.0119   -2.9766 C   0  0  0  0  0  0  0  0  0  0  0  0
   10.9692   -1.6950   -2.5363 C   0  0  0  0  0  0  0  0  0  0  0  0
   13.9126   -1.1770   -0.2514 C   0  0  0  0  0  0  0  0  0  0  0  0
   14.2236    0.0971   -0.7514 C   0  0  0  0  0  0  0  0  0  0  0  0
   15.1814    0.8735   -0.1393 C   0  0  0  0  0  0  0  0  0  0  0  0
   15.5548    2.4476   -0.7689 Cl  0  0  0  0  0  0  0  0  0  0  0  0
   15.8481    0.3983    0.9792 C   0  0  0  0  0  0  0  0  0  0  0  0
   15.5530   -0.8498    1.4811 C   0  0  0  0  0  0  0  0  0  0  0  0
   14.5827   -1.6504    0.8745 C   0  0  0  0  0  0  0  0  0  0  0  0
   13.2939   -2.7971    3.2585 H   0  0  0  0  0  0  0  0  0  0  0  0
   14.6378   -3.9638    3.2187 H   0  0  0  0  0  0  0  0  0  0  0  0
   14.9763   -2.2193    3.3220 H   0  0  0  0  0  0  0  0  0  0  0  0
   14.9942   -3.6183   -1.1458 H   0  0  0  0  0  0  0  0  0  0  0  0
   13.9430   -5.0551   -1.0935 H   0  0  0  0  0  0  0  0  0  0  0  0
   11.8047    0.3001    0.0769 H   0  0  0  0  0  0  0  0  0  0  0  0
    9.8202    1.5091   -0.7300 H   0  0  0  0  0  0  0  0  0  0  0  0
    8.5694    0.6695   -2.6751 H   0  0  0  0  0  0  0  0  0  0  0  0
    9.3010   -1.3760   -3.8298 H   0  0  0  0  0  0  0  0  0  0  0  0
   11.2894   -2.5927   -3.0444 H   0  0  0  0  0  0  0  0  0  0  0  0
   13.7071    0.4712   -1.6229 H   0  0  0  0  0  0  0  0  0  0  0  0
   16.6004    1.0078    1.4578 H   0  0  0  0  0  0  0  0  0  0  0  0
   16.0770   -1.2131    2.3527 H   0  0  0  0  0  0  0  0  0  0  0  0
  1  2  1  0  0  0  0
  2 20  1  0  0  0  0
  2  3  1  0  0  0  0
  3  4  2  0  0  0  0
  3  5  1  0  0  0  0
  5  6  1  0  0  0  0
  6  7  2  0  0  0  0
  7  8  1  0  0  0  0
  8 13  2  0  0  0  0
  8  9  1  0  0  0  0
  9 10  2  0  0  0  0
 10 11  1  0  0  0  0
 11 12  2  0  0  0  0
 12 13  1  0  0  0  0
  7 14  1  0  0  0  0
 14 20  2  0  0  0  0
 14 15  1  0  0  0  0
 15 16  2  0  0  0  0
 16 17  1  0  0  0  0
 16 18  1  0  0  0  0
 18 19  2  0  0  0  0
 19 20  1  0  0  0  0
  1 21  1  0  0  0  0
  1 22  1  0  0  0  0
  1 23  1  0  0  0  0
  5 24  1  0  0  0  0
  5 25  1  0  0  0  0
  9 26  1  0  0  0  0
 10 27  1  0  0  0  0
 11 28  1  0  0  0  0
 12 29  1  0  0  0  0
 13 30  1  0  0  0  0
 15 31  1  0  0  0  0
 18 32  1  0  0  0  0
 19 33  1  0  0  0  0
M  END
> <ZingBumps>
0

> <ZingRotBonds>
1

> <ZingDreiding>
3.087489

> <ZingProteinDesolvation>
7.241868

> <ZingFitScore>
9.013407

> <ZingPiecewiseLinear_VDW>
-21.258454

> <ZingSeed>
1115104495

> <ZingScore>
-6.427103

> <Score>
-6.427103

> <ZingPhysicsScore>
-10.766269

> <ZingStrainEnergy>
0

> <ZingPiecewiseLinear_ES>
-0.724395

> <ZingLigandDesolvation>
0.887223

> <ZingIntramolecularHBond>
0

> <DF_RANK>
20

> <DF_RECIP_RANK>
0.05

> <DF_NORMALIZED_SCORE>
0.4728330688

> <DF_ZSCORE>
-1.028743969

> <MVT_STAR_RATING>
0

$$$$
