Triazolam
       ACL          3D   0.00000     0.00000     0
CORINA Classic 5.0.0 0026  29.08.2023
 35 38  0  0  0  0  0  0  0  0999 V2000
   18.4685    4.4676   -1.7599 C   0  0  0  0  0  0  0  0  0  0  0  0
   19.6329    4.2529   -0.8275 C   0  0  0  0  0  0  0  0  0  0  0  0
   20.8659    4.6446   -1.0181 N   0  0  0  0  0  0  0  0  0  0  0  0
   21.5947    4.3042   -0.0123 N   0  0  0  0  0  0  0  0  0  0  0  0
   20.8616    3.6889    0.8701 C   0  0  0  0  0  0  0  0  0  0  0  0
   21.2927    3.1668    2.2178 C   0  0  0  0  0  0  0  0  0  0  0  0
   20.4888    3.8461    3.2394 N   0  0  0  0  0  0  0  0  0  0  0  0
   19.2047    3.7426    3.2761 C   0  0  0  0  0  0  0  0  0  0  0  0
   18.5268    4.4649    4.3771 C   0  0  0  0  0  0  0  0  0  0  0  0
   17.3806    5.2173    4.1200 C   0  0  0  0  0  0  0  0  0  0  0  0
   16.7503    5.8831    5.1507 C   0  0  0  0  0  0  0  0  0  0  0  0
   17.2588    5.8156    6.4361 C   0  0  0  0  0  0  0  0  0  0  0  0
   18.3978    5.0766    6.6976 C   0  0  0  0  0  0  0  0  0  0  0  0
   19.0353    4.4003    5.6754 C   0  0  0  0  0  0  0  0  0  0  0  0
   20.4656    3.4731    6.0047 Cl  0  0  0  0  0  0  0  0  0  0  0  0
   18.3311    2.9973    2.3623 C   0  0  0  0  0  0  0  0  0  0  0  0
   17.2578    2.2800    2.9112 C   0  0  0  0  0  0  0  0  0  0  0  0
   16.3803    1.6015    2.0957 C   0  0  0  0  0  0  0  0  0  0  0  0
   15.0603    0.7147    2.7922 Cl  0  0  0  0  0  0  0  0  0  0  0  0
   16.5482    1.6243    0.7202 C   0  0  0  0  0  0  0  0  0  0  0  0
   17.6096    2.3087    0.1665 C   0  0  0  0  0  0  0  0  0  0  0  0
   18.5173    2.9818    0.9785 C   0  0  0  0  0  0  0  0  0  0  0  0
   19.6021    3.6157    0.3729 N   0  0  0  0  0  0  0  0  0  0  0  0
   18.3981    3.6287   -2.4523 H   0  0  0  0  0  0  0  0  0  0  0  0
   17.5478    4.5392   -1.1809 H   0  0  0  0  0  0  0  0  0  0  0  0
   18.6176    5.3903   -2.3207 H   0  0  0  0  0  0  0  0  0  0  0  0
   21.1225    2.0914    2.2688 H   0  0  0  0  0  0  0  0  0  0  0  0
   22.3497    3.3811    2.3758 H   0  0  0  0  0  0  0  0  0  0  0  0
   16.9851    5.2751    3.1168 H   0  0  0  0  0  0  0  0  0  0  0  0
   15.8605    6.4625    4.9531 H   0  0  0  0  0  0  0  0  0  0  0  0
   16.7636    6.3424    7.2384 H   0  0  0  0  0  0  0  0  0  0  0  0
   18.7895    5.0275    7.7029 H   0  0  0  0  0  0  0  0  0  0  0  0
   17.1188    2.2599    3.9821 H   0  0  0  0  0  0  0  0  0  0  0  0
   15.8481    1.1058    0.0819 H   0  0  0  0  0  0  0  0  0  0  0  0
   17.7372    2.3227   -0.9058 H   0  0  0  0  0  0  0  0  0  0  0  0
  1  2  1  0  0  0  0
  2 23  1  0  0  0  0
  2  3  2  0  0  0  0
  3  4  1  0  0  0  0
  4  5  2  0  0  0  0
  5 23  1  0  0  0  0
  5  6  1  0  0  0  0
  6  7  1  0  0  0  0
  7  8  2  0  0  0  0
  8  9  1  0  0  0  0
  9 14  2  0  0  0  0
  9 10  1  0  0  0  0
 10 11  2  0  0  0  0
 11 12  1  0  0  0  0
 12 13  2  0  0  0  0
 13 14  1  0  0  0  0
 14 15  1  0  0  0  0
  8 16  1  0  0  0  0
 16 22  2  0  0  0  0
 16 17  1  0  0  0  0
 17 18  2  0  0  0  0
 18 19  1  0  0  0  0
 18 20  1  0  0  0  0
 20 21  2  0  0  0  0
 21 22  1  0  0  0  0
 22 23  1  0  0  0  0
  1 24  1  0  0  0  0
  1 25  1  0  0  0  0
  1 26  1  0  0  0  0
  6 27  1  0  0  0  0
  6 28  1  0  0  0  0
 10 29  1  0  0  0  0
 11 30  1  0  0  0  0
 12 31  1  0  0  0  0
 13 32  1  0  0  0  0
 17 33  1  0  0  0  0
 20 34  1  0  0  0  0
 21 35  1  0  0  0  0
M  END
> <ZingBumps>
0

> <ZingRotBonds>
1

> <ZingDreiding>
-1.462155

> <ZingProteinDesolvation>
0.863535

> <ZingFitScore>
9.212432

> <ZingPiecewiseLinear_VDW>
-20.070062

> <ZingSeed>
817134495

> <ZingScore>
-8.004383

> <Score>
-8.004383

> <ZingPhysicsScore>
-19.447309

> <ZingStrainEnergy>
0

> <ZingPiecewiseLinear_ES>
-0.170684

> <ZingLigandDesolvation>
1.392057

> <ZingIntramolecularHBond>
0

> <DF_RANK>
12

> <DF_RECIP_RANK>
0.08333333333

> <DF_NORMALIZED_SCORE>
0.7051483534

> <DF_ZSCORE>
0.07300555575

> <MVT_STAR_RATING>
0

$$$$
