Diethylstilbestrol
       ACL          3D   0.00000     0.00000     0
CORINA Classic 5.0.0 0026  29.08.2023
 40 41  0  0  0  0  0  0  0  0999 V2000
   16.3602    3.5117    4.2329 C   0  0  0  0  0  0  0  0  0  0  0  0
   16.5709    2.1271    3.6169 C   0  0  0  0  0  0  0  0  0  0  0  0
   17.3071    2.2659    2.3092 C   0  0  0  0  0  0  0  0  0  0  0  0
   16.6907    1.9599    1.1559 C   0  0  0  0  0  0  0  0  0  0  0  0
   17.3791    2.2218   -0.1588 C   0  0  0  0  0  0  0  0  0  0  0  0
   16.7758    3.4674   -0.8111 C   0  0  0  0  0  0  0  0  0  0  0  0
   15.3414    1.3683    1.1761 C   0  0  0  0  0  0  0  0  0  0  0  0
   14.6533    1.1505   -0.0209 C   0  0  0  0  0  0  0  0  0  0  0  0
   13.3893    0.6022    0.0034 C   0  0  0  0  0  0  0  0  0  0  0  0
   12.8031    0.2564    1.2142 C   0  0  0  0  0  0  0  0  0  0  0  0
   11.5590   -0.2893    1.2328 O   0  0  0  0  0  0  0  0  0  0  0  0
   13.4850    0.4660    2.4060 C   0  0  0  0  0  0  0  0  0  0  0  0
   14.7473    1.0186    2.3921 C   0  0  0  0  0  0  0  0  0  0  0  0
   18.7030    2.7372    2.2962 C   0  0  0  0  0  0  0  0  0  0  0  0
   19.3378    3.0150    1.0822 C   0  0  0  0  0  0  0  0  0  0  0  0
   20.6417    3.4607    1.0753 C   0  0  0  0  0  0  0  0  0  0  0  0
   21.3287    3.6236    2.2715 C   0  0  0  0  0  0  0  0  0  0  0  0
   22.6161    4.0575    2.2594 O   0  0  0  0  0  0  0  0  0  0  0  0
   20.7038    3.3438    3.4800 C   0  0  0  0  0  0  0  0  0  0  0  0
   19.3984    2.9027    3.4974 C   0  0  0  0  0  0  0  0  0  0  0  0
   15.7634    3.4187    5.1402 H   0  0  0  0  0  0  0  0  0  0  0  0
   17.3270    3.9516    4.4774 H   0  0  0  0  0  0  0  0  0  0  0  0
   15.8399    4.1513    3.5199 H   0  0  0  0  0  0  0  0  0  0  0  0
   15.6035    1.6567    3.4411 H   0  0  0  0  0  0  0  0  0  0  0  0
   17.1559    1.5109    4.2996 H   0  0  0  0  0  0  0  0  0  0  0  0
   18.4435    2.3813    0.0138 H   0  0  0  0  0  0  0  0  0  0  0  0
   17.2423    1.3642   -0.8177 H   0  0  0  0  0  0  0  0  0  0  0  0
   16.9126    4.3249   -0.1523 H   0  0  0  0  0  0  0  0  0  0  0  0
   17.2738    3.6567   -1.7622 H   0  0  0  0  0  0  0  0  0  0  0  0
   15.7115    3.3079   -0.9838 H   0  0  0  0  0  0  0  0  0  0  0  0
   15.1101    1.4149   -0.9632 H   0  0  0  0  0  0  0  0  0  0  0  0
   12.8554    0.4369   -0.9207 H   0  0  0  0  0  0  0  0  0  0  0  0
   11.2338   -0.4970    2.1195 H   0  0  0  0  0  0  0  0  0  0  0  0
   13.0253    0.1951    3.3450 H   0  0  0  0  0  0  0  0  0  0  0  0
   15.2769    1.1810    3.3192 H   0  0  0  0  0  0  0  0  0  0  0  0
   18.8059    2.8844    0.1513 H   0  0  0  0  0  0  0  0  0  0  0  0
   21.1318    3.6795    0.1381 H   0  0  0  0  0  0  0  0  0  0  0  0
   23.0117    4.1396    3.1379 H   0  0  0  0  0  0  0  0  0  0  0  0
   21.2420    3.4720    4.4075 H   0  0  0  0  0  0  0  0  0  0  0  0
   18.9136    2.6848    4.4374 H   0  0  0  0  0  0  0  0  0  0  0  0
  1  2  1  0  0  0  0
  2  3  1  0  0  0  0
  3  4  2  0  0  0  0
  4  5  1  0  0  0  0
  5  6  1  0  0  0  0
  4  7  1  0  0  0  0
  7 13  2  0  0  0  0
  7  8  1  0  0  0  0
  8  9  2  0  0  0  0
  9 10  1  0  0  0  0
 10 11  1  0  0  0  0
 10 12  2  0  0  0  0
 12 13  1  0  0  0  0
  3 14  1  0  0  0  0
 14 20  2  0  0  0  0
 14 15  1  0  0  0  0
 15 16  2  0  0  0  0
 16 17  1  0  0  0  0
 17 18  1  0  0  0  0
 17 19  2  0  0  0  0
 19 20  1  0  0  0  0
  1 21  1  0  0  0  0
  1 22  1  0  0  0  0
  1 23  1  0  0  0  0
  2 24  1  0  0  0  0
  2 25  1  0  0  0  0
  5 26  1  0  0  0  0
  5 27  1  0  0  0  0
  6 28  1  0  0  0  0
  6 29  1  0  0  0  0
  6 30  1  0  0  0  0
  8 31  1  0  0  0  0
  9 32  1  0  0  0  0
 11 33  1  0  0  0  0
 12 34  1  0  0  0  0
 13 35  1  0  0  0  0
 15 36  1  0  0  0  0
 16 37  1  0  0  0  0
 18 38  1  0  0  0  0
 19 39  1  0  0  0  0
 20 40  1  0  0  0  0
M  END
> <ZingBumps>
0

> <ZingRotBonds>
4

> <ZingDreiding>
7.813695

> <ZingProteinDesolvation>
1.408635

> <ZingFitScore>
11.607731

> <ZingPiecewiseLinear_VDW>
-21.35433

> <ZingSeed>
71296784

> <ZingScore>
-8.096679

> <Score>
-8.096679

> <ZingPhysicsScore>
-12.804333

> <ZingStrainEnergy>
0

> <ZingPiecewiseLinear_ES>
-1.48759

> <ZingLigandDesolvation>
0.815257

> <ZingIntramolecularHBond>
0

> <DF_RANK>
10

> <DF_RECIP_RANK>
0.1

> <DF_NORMALIZED_SCORE>
0.7187424975

> <DF_ZSCORE>
0.1374754496

> <MVT_STAR_RATING>
0

$$$$
