Sulfamethoxazole
       ACL          3D   0.00000     0.00000     0
CORINA Classic 5.0.0 0026  29.08.2023
 28 29  0  0  0  0  0  0  0  0999 V2000
   17.5714    5.1394    5.7979 C   0  0  0  0  0  0  0  0  0  0  0  0
   17.2830    4.3017    4.5789 C   0  0  0  0  0  0  0  0  0  0  0  0
   17.3778    2.9675    4.4830 O   0  0  0  0  0  0  0  0  0  0  0  0
   17.0827    2.5753    3.3779 N   0  0  0  0  0  0  0  0  0  0  0  0
   16.7548    3.5666    2.5903 C   0  0  0  0  0  0  0  0  0  0  0  0
   16.3634    3.4807    1.2583 N   0  0  0  0  0  0  0  0  0  0  0  0
   17.0584    2.3552    0.2620 S   0  0  0  0  0  0  0  0  0  0  0  0
   18.3094    2.0197    0.8466 O   0  0  0  0  0  0  0  0  0  0  0  0
   16.9285    2.8561   -1.0615 O   0  0  0  0  0  0  0  0  0  0  0  0
   16.0654    0.9020    0.3438 C   0  0  0  0  0  0  0  0  0  0  0  0
   15.0997    0.6713   -0.6188 C   0  0  0  0  0  0  0  0  0  0  0  0
   14.3199   -0.4669   -0.5579 C   0  0  0  0  0  0  0  0  0  0  0  0
   14.5065   -1.3806    0.4718 C   0  0  0  0  0  0  0  0  0  0  0  0
   13.7192   -2.5324    0.5366 N   0  0  0  0  0  0  0  0  0  0  0  0
   15.4739   -1.1430    1.4400 C   0  0  0  0  0  0  0  0  0  0  0  0
   16.2538   -0.0054    1.3701 C   0  0  0  0  0  0  0  0  0  0  0  0
   16.8847    4.7494    3.3668 C   0  0  0  0  0  0  0  0  0  0  0  0
   17.8776    4.4920    6.6196 H   0  0  0  0  0  0  0  0  0  0  0  0
   18.3718    5.8444    5.5733 H   0  0  0  0  0  0  0  0  0  0  0  0
   16.6735    5.6878    6.0827 H   0  0  0  0  0  0  0  0  0  0  0  0
   15.6833    4.0800    0.9130 H   0  0  0  0  0  0  0  0  0  0  0  0
   14.9549    1.3822   -1.4188 H   0  0  0  0  0  0  0  0  0  0  0  0
   13.5656   -0.6463   -1.3097 H   0  0  0  0  0  0  0  0  0  0  0  0
   13.0413   -2.6952   -0.1378 H   0  0  0  0  0  0  0  0  0  0  0  0
   13.8532   -3.1717    1.2538 H   0  0  0  0  0  0  0  0  0  0  0  0
   15.6185   -1.8492    2.2443 H   0  0  0  0  0  0  0  0  0  0  0  0
   17.0089    0.1778    2.1202 H   0  0  0  0  0  0  0  0  0  0  0  0
   16.7045    5.7693    3.0607 H   0  0  0  0  0  0  0  0  0  0  0  0
  1  2  1  0  0  0  0
  2 17  2  0  0  0  0
  2  3  1  0  0  0  0
  3  4  1  0  0  0  0
  4  5  2  0  0  0  0
  5  6  1  0  0  0  0
  6  7  1  0  0  0  0
  7  8  2  0  0  0  0
  7  9  2  0  0  0  0
  7 10  1  0  0  0  0
 10 16  2  0  0  0  0
 10 11  1  0  0  0  0
 11 12  2  0  0  0  0
 12 13  1  0  0  0  0
 13 14  1  0  0  0  0
 13 15  2  0  0  0  0
 15 16  1  0  0  0  0
  5 17  1  0  0  0  0
  1 18  1  0  0  0  0
  1 19  1  0  0  0  0
  1 20  1  0  0  0  0
  6 21  1  0  0  0  0
 11 22  1  0  0  0  0
 12 23  1  0  0  0  0
 14 24  1  0  0  0  0
 14 25  1  0  0  0  0
 15 26  1  0  0  0  0
 16 27  1  0  0  0  0
 17 28  1  0  0  0  0
M  END
> <ZingBumps>
0

> <ZingRotBonds>
3

> <ZingDreiding>
1.798715

> <ZingProteinDesolvation>
1.873314

> <ZingFitScore>
10.984929

> <ZingPiecewiseLinear_VDW>
-18.974236

> <ZingSeed>
809905105

> <ZingScore>
-8.087116

> <Score>
-8.087116

> <ZingPhysicsScore>
-14.616482

> <ZingStrainEnergy>
0

> <ZingPiecewiseLinear_ES>
-1.510095

> <ZingLigandDesolvation>
2.19582

> <ZingIntramolecularHBond>
0

> <DF_RANK>
11

> <DF_RECIP_RANK>
0.09090909091

> <DF_NORMALIZED_SCORE>
0.7173339771

> <DF_ZSCORE>
0.1307955762

> <MVT_STAR_RATING>
0

$$$$
