Hydrocortisone
       ACL          3D   0.00000     0.00000     0
CORINA Classic 5.0.0 0026  29.08.2023
 56 59  0  0  1  0  0  0  0  0999 V2000
   15.7274    3.7063    2.2292 C   0  0  0  0  0  0  0  0  0  0  0  0
   16.8628    2.7103    1.9844 C   0  0  2  0  0  0  0  0  0  0  0  0
   17.6792    2.6575    3.2524 C   0  0  0  0  0  0  0  0  0  0  0  0
   19.1459    2.3215    2.9838 C   0  0  0  0  0  0  0  0  0  0  0  0
   19.6743    3.3351    1.9865 C   0  0  0  0  0  0  0  0  0  0  0  0
   20.6891    3.9676    2.1912 O   0  0  0  0  0  0  0  0  0  0  0  0
   18.8848    3.5076    0.7587 C   0  0  0  0  0  0  0  0  0  0  0  0
   17.5918    3.1961    0.7703 C   0  0  0  0  0  0  0  0  0  0  0  0
   16.8035    3.2935   -0.5249 C   0  0  0  0  0  0  0  0  0  0  0  0
   16.1405    1.9334   -0.7704 C   0  0  0  0  0  0  0  0  0  0  0  0
   15.2992    1.5359    0.4428 C   0  0  1  0  0  0  0  0  0  0  0  0
   14.5471    2.2986    0.6449 H   0  0  0  0  0  0  0  0  0  0  0  0
   14.6192    0.2030    0.1896 C   0  0  2  0  0  0  0  0  0  0  0  0
   15.3541   -0.5918    0.0614 H   0  0  0  0  0  0  0  0  0  0  0  0
   13.6037    0.1819   -0.9585 C   0  0  0  0  0  0  0  0  0  0  0  0
   12.6966   -1.0264   -0.5990 C   0  0  0  0  0  0  0  0  0  0  0  0
   12.8188   -1.2250    0.9336 C   0  0  2  0  0  0  0  0  0  0  0  0
   13.4240   -2.4869    1.2223 O   0  0  0  0  0  0  0  0  0  0  0  0
   11.4622   -1.1345    1.5835 C   0  0  0  0  0  0  0  0  0  0  0  0
   10.4975   -0.8242    0.9267 O   0  0  0  0  0  0  0  0  0  0  0  0
   11.3094   -1.4313    3.0531 C   0  0  0  0  0  0  0  0  0  0  0  0
   10.7812   -0.2824    3.7186 O   0  0  0  0  0  0  0  0  0  0  0  0
   13.7128   -0.0875    1.4160 C   0  0  2  0  0  0  0  0  0  0  0  0
   12.8600    1.1426    1.7328 C   0  0  0  0  0  0  0  0  0  0  0  0
   14.6266   -0.3939    2.5867 C   0  0  0  0  0  0  0  0  0  0  0  0
   15.4196    0.8873    2.8907 C   0  0  2  0  0  0  0  0  0  0  0  0
   16.1139    0.6906    3.7075 H   0  0  0  0  0  0  0  0  0  0  0  0
   14.5093    1.9140    3.2896 O   0  0  0  0  0  0  0  0  0  0  0  0
   16.2055    1.3644    1.6735 C   0  0  2  0  0  0  0  0  0  0  0  0
   16.9786    0.6336    1.4360 H   0  0  0  0  0  0  0  0  0  0  0  0
   16.1073    4.7228    2.1269 H   0  0  0  0  0  0  0  0  0  0  0  0
   14.9344    3.5397    1.5000 H   0  0  0  0  0  0  0  0  0  0  0  0
   15.3314    3.5658    3.2349 H   0  0  0  0  0  0  0  0  0  0  0  0
   17.2581    1.8993    3.9126 H   0  0  0  0  0  0  0  0  0  0  0  0
   17.6238    3.6262    3.7490 H   0  0  0  0  0  0  0  0  0  0  0  0
   19.7154    2.3834    3.9111 H   0  0  0  0  0  0  0  0  0  0  0  0
   19.2250    1.3172    2.5676 H   0  0  0  0  0  0  0  0  0  0  0  0
   19.3494    3.8817   -0.1416 H   0  0  0  0  0  0  0  0  0  0  0  0
   17.4757    3.5311   -1.3494 H   0  0  0  0  0  0  0  0  0  0  0  0
   16.0399    4.0663   -0.4365 H   0  0  0  0  0  0  0  0  0  0  0  0
   16.9104    1.1807   -0.9392 H   0  0  0  0  0  0  0  0  0  0  0  0
   15.4994    1.9985   -1.6496 H   0  0  0  0  0  0  0  0  0  0  0  0
   13.0254    1.1056   -0.9786 H   0  0  0  0  0  0  0  0  0  0  0  0
   14.1043    0.0212   -1.9132 H   0  0  0  0  0  0  0  0  0  0  0  0
   11.6621   -0.8099   -0.8656 H   0  0  0  0  0  0  0  0  0  0  0  0
   13.0383   -1.9194   -1.1223 H   0  0  0  0  0  0  0  0  0  0  0  0
   14.2146   -2.6732    0.6976 H   0  0  0  0  0  0  0  0  0  0  0  0
   10.6290   -2.2725    3.1850 H   0  0  0  0  0  0  0  0  0  0  0  0
   12.2823   -1.6811    3.4764 H   0  0  0  0  0  0  0  0  0  0  0  0
   11.2015    0.5494    3.4608 H   0  0  0  0  0  0  0  0  0  0  0  0
   13.4940    2.0291    1.7521 H   0  0  0  0  0  0  0  0  0  0  0  0
   12.0937    1.2607    0.9667 H   0  0  0  0  0  0  0  0  0  0  0  0
   12.3848    1.0146    2.7054 H   0  0  0  0  0  0  0  0  0  0  0  0
   15.3108   -1.2003    2.3225 H   0  0  0  0  0  0  0  0  0  0  0  0
   14.0338   -0.6786    3.4559 H   0  0  0  0  0  0  0  0  0  0  0  0
   14.7228    2.3199    4.1410 H   0  0  0  0  0  0  0  0  0  0  0  0
  1  2  1  0  0  0  0
  2  8  1  0  0  0  0
  2 29  1  0  0  0  0
  2  3  1  0  0  0  0
  3  4  1  0  0  0  0
  4  5  1  0  0  0  0
  5  6  2  0  0  0  0
  5  7  1  0  0  0  0
  7  8  2  0  0  0  0
  8  9  1  0  0  0  0
  9 10  1  0  0  0  0
 10 11  1  0  0  0  0
 11 12  1  0  0  0  0
 11 29  1  0  0  0  0
 11 13  1  0  0  0  0
 13 14  1  0  0  0  0
 13 23  1  0  0  0  0
 13 15  1  0  0  0  0
 15 16  1  0  0  0  0
 16 17  1  0  0  0  0
 17 18  1  0  0  0  0
 17 19  1  0  0  0  0
 19 20  2  0  0  0  0
 19 21  1  0  0  0  0
 21 22  1  0  0  0  0
 17 23  1  0  0  0  0
 23 24  1  0  0  0  0
 23 25  1  0  0  0  0
 25 26  1  0  0  0  0
 26 27  1  0  0  0  0
 26 28  1  0  0  0  0
 26 29  1  0  0  0  0
 29 30  1  0  0  0  0
  1 31  1  0  0  0  0
  1 32  1  0  0  0  0
  1 33  1  0  0  0  0
  3 34  1  0  0  0  0
  3 35  1  0  0  0  0
  4 36  1  0  0  0  0
  4 37  1  0  0  0  0
  7 38  1  0  0  0  0
  9 39  1  0  0  0  0
  9 40  1  0  0  0  0
 10 41  1  0  0  0  0
 10 42  1  0  0  0  0
 15 43  1  0  0  0  0
 15 44  1  0  0  0  0
 16 45  1  0  0  0  0
 16 46  1  0  0  0  0
 18 47  1  0  0  0  0
 21 48  1  0  0  0  0
 21 49  1  0  0  0  0
 22 50  1  0  0  0  0
 24 51  1  0  0  0  0
 24 52  1  0  0  0  0
 24 53  1  0  0  0  0
 25 54  1  0  0  0  0
 25 55  1  0  0  0  0
 28 56  1  0  0  0  0
M  END
> <ZingBumps>
0

> <ZingRotBonds>
2

> <ZingDreiding>
0.736831

> <ZingProteinDesolvation>
4.491003

> <ZingFitScore>
7.468949

> <ZingPiecewiseLinear_VDW>
-25.482865

> <ZingSeed>
214088021

> <ZingScore>
-8.436027

> <Score>
-8.436027

> <ZingPhysicsScore>
-27.216839

> <ZingStrainEnergy>
0

> <ZingPiecewiseLinear_ES>
-13.408206

> <ZingLigandDesolvation>
6.446399

> <ZingIntramolecularHBond>
0

> <DF_RANK>
8

> <DF_RECIP_RANK>
0.125

> <DF_NORMALIZED_SCORE>
0.7687245725

> <DF_ZSCORE>
0.3745142112

> <MVT_STAR_RATING>
0

$$$$
