Camptothecin
       ACL          3D   0.00000     0.00000     0
CORINA Classic 5.0.0 0026  29.08.2023
 42 46  0  0  1  0  0  0  0  0999 V2000
    9.7531   -2.5324   -5.8566 C   0  0  0  0  0  0  0  0  0  0  0  0
   10.1861   -2.2812   -4.4108 C   0  0  0  0  0  0  0  0  0  0  0  0
    9.2409   -1.2665   -3.7644 C   0  0  1  0  0  0  0  0  0  0  0  0
    9.3222   -0.0226   -4.4630 O   0  0  0  0  0  0  0  0  0  0  0  0
    7.8235   -1.7874   -3.8230 C   0  0  0  0  0  0  0  0  0  0  0  0
    7.0357   -1.3902   -4.6485 O   0  0  0  0  0  0  0  0  0  0  0  0
    7.4801   -2.7199   -2.9053 O   0  0  0  0  0  0  0  0  0  0  0  0
    7.5850   -2.2824   -1.5252 C   0  0  0  0  0  0  0  0  0  0  0  0
    8.8777   -1.5442   -1.2988 C   0  0  0  0  0  0  0  0  0  0  0  0
    9.6310   -1.0614   -2.3222 C   0  0  0  0  0  0  0  0  0  0  0  0
   10.8086   -0.3566   -2.0383 C   0  0  0  0  0  0  0  0  0  0  0  0
   11.2039   -0.1634   -0.7321 C   0  0  0  0  0  0  0  0  0  0  0  0
   10.4446   -0.6626    0.2879 N   0  0  0  0  0  0  0  0  0  0  0  0
   11.0885   -0.3220    1.5634 C   0  0  0  0  0  0  0  0  0  0  0  0
   12.3363    0.4507    1.2213 C   0  0  0  0  0  0  0  0  0  0  0  0
   13.3094    1.0165    1.9828 C   0  0  0  0  0  0  0  0  0  0  0  0
   14.3641    1.6830    1.3275 C   0  0  0  0  0  0  0  0  0  0  0  0
   15.4031    2.2902    2.0494 C   0  0  0  0  0  0  0  0  0  0  0  0
   16.4065    2.9237    1.3812 C   0  0  0  0  0  0  0  0  0  0  0  0
   16.4153    2.9784   -0.0115 C   0  0  0  0  0  0  0  0  0  0  0  0
   15.4241    2.4020   -0.7435 C   0  0  0  0  0  0  0  0  0  0  0  0
   14.3687    1.7375   -0.0900 C   0  0  0  0  0  0  0  0  0  0  0  0
   13.3853    1.1652   -0.7848 N   0  0  0  0  0  0  0  0  0  0  0  0
   12.3885    0.5364   -0.1815 C   0  0  0  0  0  0  0  0  0  0  0  0
    9.3091   -1.3387    0.0283 C   0  0  0  0  0  0  0  0  0  0  0  0
    8.6453   -1.7791    0.9528 O   0  0  0  0  0  0  0  0  0  0  0  0
    8.7361   -2.9243   -5.8685 H   0  0  0  0  0  0  0  0  0  0  0  0
    9.7884   -1.5965   -6.4142 H   0  0  0  0  0  0  0  0  0  0  0  0
   10.4265   -3.2552   -6.3172 H   0  0  0  0  0  0  0  0  0  0  0  0
   11.2031   -1.8892   -4.3990 H   0  0  0  0  0  0  0  0  0  0  0  0
   10.1509   -3.2172   -3.8532 H   0  0  0  0  0  0  0  0  0  0  0  0
    9.6779   -0.0973   -5.3591 H   0  0  0  0  0  0  0  0  0  0  0  0
    7.5484   -3.1520   -0.8689 H   0  0  0  0  0  0  0  0  0  0  0  0
    6.7492   -1.6226   -1.2930 H   0  0  0  0  0  0  0  0  0  0  0  0
   11.4085    0.0364   -2.8457 H   0  0  0  0  0  0  0  0  0  0  0  0
   10.4211    0.2938    2.1664 H   0  0  0  0  0  0  0  0  0  0  0  0
   11.3489   -1.2313    2.1052 H   0  0  0  0  0  0  0  0  0  0  0  0
   13.2756    0.9562    3.0606 H   0  0  0  0  0  0  0  0  0  0  0  0
   15.4073    2.2547    3.1288 H   0  0  0  0  0  0  0  0  0  0  0  0
   17.2059    3.3903    1.9378 H   0  0  0  0  0  0  0  0  0  0  0  0
   17.2222    3.4872   -0.5180 H   0  0  0  0  0  0  0  0  0  0  0  0
   15.4468    2.4535   -1.8220 H   0  0  0  0  0  0  0  0  0  0  0  0
  1  2  1  0  0  0  0
  2  3  1  0  0  0  0
  3 10  1  0  0  0  0
  3  4  1  0  0  0  0
  3  5  1  0  0  0  0
  5  6  2  0  0  0  0
  5  7  1  0  0  0  0
  7  8  1  0  0  0  0
  8  9  1  0  0  0  0
  9 25  1  0  0  0  0
  9 10  2  0  0  0  0
 10 11  1  0  0  0  0
 11 12  2  0  0  0  0
 12 24  1  0  0  0  0
 12 13  1  0  0  0  0
 13 14  1  0  0  0  0
 14 15  1  0  0  0  0
 15 24  2  0  0  0  0
 15 16  1  0  0  0  0
 16 17  2  0  0  0  0
 17 22  1  0  0  0  0
 17 18  1  0  0  0  0
 18 19  2  0  0  0  0
 19 20  1  0  0  0  0
 20 21  2  0  0  0  0
 21 22  1  0  0  0  0
 22 23  2  0  0  0  0
 23 24  1  0  0  0  0
 13 25  1  0  0  0  0
 25 26  2  0  0  0  0
  1 27  1  0  0  0  0
  1 28  1  0  0  0  0
  1 29  1  0  0  0  0
  2 30  1  0  0  0  0
  2 31  1  0  0  0  0
  4 32  1  0  0  0  0
  8 33  1  0  0  0  0
  8 34  1  0  0  0  0
 11 35  1  0  0  0  0
 14 36  1  0  0  0  0
 14 37  1  0  0  0  0
 16 38  1  0  0  0  0
 18 39  1  0  0  0  0
 19 40  1  0  0  0  0
 20 41  1  0  0  0  0
 21 42  1  0  0  0  0
M  END
> <ZingBumps>
0

> <ZingRotBonds>
1

> <ZingDreiding>
-0.225962

> <ZingProteinDesolvation>
5.300867

> <ZingFitScore>
11.797216

> <ZingPiecewiseLinear_VDW>
-20.224722

> <ZingSeed>
754680958

> <ZingScore>
-8.975489

> <Score>
-8.975489

> <ZingPhysicsScore>
-17.405347

> <ZingStrainEnergy>
0

> <ZingPiecewiseLinear_ES>
-4.532284

> <ZingLigandDesolvation>
2.276756

> <ZingIntramolecularHBond>
0

> <DF_RANK>
5

> <DF_RECIP_RANK>
0.2

> <DF_NORMALIZED_SCORE>
0.8481811484

> <DF_ZSCORE>
0.7513350688

> <MVT_STAR_RATING>
0

$$$$
