Acetazolamide
       ACL          3D   0.00000     0.00000     0
CORINA Classic 5.0.0 0026  29.08.2023
 19 19  0  0  0  0  0  0  0  0999 V2000
   10.3771   -1.2277    2.4739 C   0  0  0  0  0  0  0  0  0  0  0  0
   11.6161   -0.4934    2.0304 C   0  0  0  0  0  0  0  0  0  0  0  0
   11.5406    0.3594    1.1714 O   0  0  0  0  0  0  0  0  0  0  0  0
   12.8079   -0.7845    2.5882 N   0  0  0  0  0  0  0  0  0  0  0  0
   13.9514   -0.1068    2.1788 C   0  0  0  0  0  0  0  0  0  0  0  0
   15.1228   -0.1950    2.7328 N   0  0  0  0  0  0  0  0  0  0  0  0
   16.0594    0.4902    2.2356 N   0  0  0  0  0  0  0  0  0  0  0  0
   15.7602    1.2231    1.2104 C   0  0  0  0  0  0  0  0  0  0  0  0
   14.0480    0.9826    0.8602 S   0  0  0  0  0  0  0  0  0  0  0  0
   16.8632    2.2767    0.3286 S   0  0  0  0  0  0  0  0  0  0  0  0
   18.1609    1.7183    0.4828 O   0  0  0  0  0  0  0  0  0  0  0  0
   16.2647    2.5142   -0.9381 O   0  0  0  0  0  0  0  0  0  0  0  0
   16.8845    3.7334    1.1162 N   0  0  0  0  0  0  0  0  0  0  0  0
   10.6400   -1.9502    3.2467 H   0  0  0  0  0  0  0  0  0  0  0  0
    9.6557   -0.5150    2.8734 H   0  0  0  0  0  0  0  0  0  0  0  0
    9.9396   -1.7493    1.6227 H   0  0  0  0  0  0  0  0  0  0  0  0
   12.8683   -1.4666    3.2752 H   0  0  0  0  0  0  0  0  0  0  0  0
   17.6832    4.2834    1.0972 H   0  0  0  0  0  0  0  0  0  0  0  0
   16.0981    4.0365    1.5964 H   0  0  0  0  0  0  0  0  0  0  0  0
  1  2  1  0  0  0  0
  2  3  2  0  0  0  0
  2  4  1  0  0  0  0
  4  5  1  0  0  0  0
  5  9  1  0  0  0  0
  5  6  2  0  0  0  0
  6  7  1  0  0  0  0
  7  8  2  0  0  0  0
  8  9  1  0  0  0  0
  8 10  1  0  0  0  0
 10 11  2  0  0  0  0
 10 12  2  0  0  0  0
 10 13  1  0  0  0  0
  1 14  1  0  0  0  0
  1 15  1  0  0  0  0
  1 16  1  0  0  0  0
  4 17  1  0  0  0  0
 13 18  1  0  0  0  0
 13 19  1  0  0  0  0
M  END
> <ZingBumps>
0

> <ZingRotBonds>
2

> <ZingDreiding>
2.570177

> <ZingProteinDesolvation>
2.533868

> <ZingFitScore>
6.589157

> <ZingPiecewiseLinear_VDW>
-13.951332

> <ZingSeed>
225867684

> <ZingScore>
-3.216853

> <Score>
-3.216853

> <ZingPhysicsScore>
0.844809

> <ZingStrainEnergy>
0

> <ZingPiecewiseLinear_ES>
0.409428

> <ZingLigandDesolvation>
9.096527

> <ZingIntramolecularHBond>
0.186141

> <DF_RANK>
22

> <DF_RECIP_RANK>
0.04545454545

> <DF_NORMALIZED_SCORE>
-0

> <DF_ZSCORE>
-3.271143171

> <MVT_STAR_RATING>
0

$$$$
